<?xml version="1.0" encoding="UTF-8"?>

<!-- generated on 2026-04-25 22:15:36.785562 by Eclipse SUMO osmWebWizard.py v1_26_0+0000-fa7df22d7f1
<configuration>
    <net-file value="C:\Users\jordb\AppData\Local\Programs\Microsoft VS Code\2026-04-25-22-15-28\osm.net.xml.gz"/>
    <output-trip-file value="C:\Users\jordb\AppData\Local\Programs\Microsoft VS Code\2026-04-25-22-15-28\osm.passenger.trips.xml"/>
    <route-file value="C:\Users\jordb\AppData\Local\Programs\Microsoft VS Code\2026-04-25-22-15-28\osm.passenger.rou.xml"/>
    <prefix value="veh"/>
    <trip-attributes value="departLane=&quot;best&quot;"/>
    <fringe-start-attributes value="departSpeed=&quot;max&quot;"/>
    <vehicle-class value="passenger"/>
    <lanes value="True"/>
    <fringe-factor value="5"/>
    <allow-fringe.min-length value="1000.0"/>
    <edge-permission value="passenger"/>
    <via-edge-types value="highway.motorway,highway.motorway_link,highway.trunk_link,highway.primary_link,highway.secondary_link,highway.tertiary_link"/>
    <min-distance value="300.0"/>
    <min-distance.fringe value="10.0"/>
    <remove-loops value="True"/>
    <insertion-density value="12.0"/>
</configuration>
-->

<routes xmlns:xsi="http://www.w3.org/2001/XMLSchema-instance" xsi:noNamespaceSchemaLocation="http://sumo.dlr.de/xsd/routes_file.xsd">
    <vType id="veh_passenger" vClass="passenger"/>
    <trip id="veh0" depart="0.00" from="184884856" to="-118119597#0" departLane="best" type="veh_passenger"/>
    <trip id="veh1" depart="6.43" from="-32334404#2" to="-32334362#0" departLane="best" type="veh_passenger"/>
    <trip id="veh2" depart="12.87" from="291713797#2" to="308795346#1" departLane="best" type="veh_passenger"/>
    <trip id="veh3" depart="19.30" from="-338227894#2" to="-118119597#0" departLane="best" type="veh_passenger"/>
    <trip id="veh4" depart="25.73" from="-32334367#3" to="1187542333#0" departLane="best" type="veh_passenger"/>
    <trip id="veh5" depart="32.16" from="-1187542338#1" to="-32334345#1" departLane="best" type="veh_passenger" departSpeed="max"/>
    <trip id="veh6" depart="38.60" from="-32334367#4" to="184884883" departLane="best" type="veh_passenger"/>
    <trip id="veh7" depart="45.03" from="32334366#2" to="308795349#1" departLane="best" type="veh_passenger"/>
    <trip id="veh8" depart="51.46" from="-32894006#3" to="-291713795#0" departLane="best" type="veh_passenger"/>
    <trip id="veh9" depart="57.89" from="338227894#2" to="-32894001#6" departLane="best" type="veh_passenger"/>
    <trip id="veh10" depart="64.33" from="32334396#7" to="184884894#3" departLane="best" type="veh_passenger"/>
    <trip id="veh11" depart="70.76" from="118119597#0" to="660353248#0" departLane="best" type="veh_passenger" departSpeed="max"/>
    <trip id="veh12" depart="77.19" from="32334390#1" to="184884901#2" departLane="best" type="veh_passenger"/>
    <trip id="veh13" depart="83.63" from="32334403#1" to="184884871#1" departLane="best" type="veh_passenger"/>
    <trip id="veh14" depart="90.06" from="-32334370#1" to="-32334403#1" departLane="best" type="veh_passenger" departSpeed="max"/>
    <trip id="veh15" depart="96.49" from="-184884899#1" to="-32334366#1" departLane="best" type="veh_passenger"/>
    <trip id="veh16" depart="102.92" from="-205015386#2" to="-32334398#0" departLane="best" type="veh_passenger" departSpeed="max"/>
    <trip id="veh17" depart="109.36" from="-32894025#4" to="-32334350#0" departLane="best" type="veh_passenger" departSpeed="max"/>
    <trip id="veh18" depart="115.79" from="-32334402#1" to="32894283#1" departLane="best" type="veh_passenger" departSpeed="max"/>
    <trip id="veh19" depart="122.22" from="184884859#0" to="184884899#2" departLane="best" type="veh_passenger" departSpeed="max"/>
    <trip id="veh20" depart="128.65" from="-308795349#1" to="32334362#2" departLane="best" type="veh_passenger" departSpeed="max"/>
    <trip id="veh21" depart="135.09" from="824106037" to="205051090#3" departLane="best" type="veh_passenger"/>
    <trip id="veh22" depart="141.52" from="1187542324" to="308795347#0" departLane="best" type="veh_passenger" departSpeed="max"/>
    <trip id="veh23" depart="147.95" from="32334396#0" to="32334397#4" departLane="best" type="veh_passenger" departSpeed="max"/>
    <trip id="veh24" depart="154.39" from="-32334371#0" to="-1187542315#1" departLane="best" type="veh_passenger"/>
    <trip id="veh25" depart="160.82" from="-32334364#1" to="338227894#0" departLane="best" type="veh_passenger"/>
    <trip id="veh26" depart="167.25" from="32334410#1" to="-32893806#0" departLane="best" type="veh_passenger"/>
    <trip id="veh27" depart="173.68" from="32894006#2" to="1124352865#0" departLane="best" type="veh_passenger"/>
    <trip id="veh28" depart="180.12" from="-32334402#1" to="-32334371#2" departLane="best" type="veh_passenger" departSpeed="max"/>
    <trip id="veh29" depart="186.55" from="1187542324" to="-32334392#0" departLane="best" type="veh_passenger" departSpeed="max"/>
    <trip id="veh30" depart="192.98" from="1187542332#0" to="32894025#4" departLane="best" type="veh_passenger"/>
    <trip id="veh31" depart="199.41" from="-32894200#1" to="-32334350#5" departLane="best" type="veh_passenger" departSpeed="max"/>
    <trip id="veh32" depart="205.85" from="971077567#0" to="1187542338#1" departLane="best" type="veh_passenger" departSpeed="max"/>
    <trip id="veh33" depart="212.28" from="-205051089#0" to="205015386#1" departLane="best" type="veh_passenger"/>
    <trip id="veh34" depart="218.71" from="32334350#5" to="1012105638" departLane="best" type="veh_passenger"/>
    <trip id="veh35" depart="225.15" from="-184884893#0" to="-338227894#2" departLane="best" type="veh_passenger"/>
    <trip id="veh36" depart="231.58" from="971077567#0" to="184878267" departLane="best" type="veh_passenger" departSpeed="max"/>
    <trip id="veh37" depart="238.01" from="352919306#1" to="32894006#1" departLane="best" type="veh_passenger"/>
    <trip id="veh38" depart="244.44" from="-118119586#1" to="32334350#2" departLane="best" type="veh_passenger"/>
    <trip id="veh39" depart="250.88" from="184884918#0" to="184878274#1" departLane="best" type="veh_passenger" departSpeed="max"/>
    <trip id="veh40" depart="257.31" from="-32334402#1" to="205051090#4" departLane="best" type="veh_passenger" departSpeed="max"/>
    <trip id="veh41" depart="263.74" from="-205051090#2" to="1124352813#1" departLane="best" type="veh_passenger"/>
    <trip id="veh42" depart="270.17" from="-94667870#1" to="338227978" departLane="best" type="veh_passenger" departSpeed="max"/>
    <trip id="veh43" depart="276.61" from="32334410#1" to="-32334392#0" departLane="best" type="veh_passenger"/>
    <trip id="veh44" depart="283.04" from="1124352865#0" to="-32334323#2" departLane="best" type="veh_passenger"/>
    <trip id="veh45" depart="289.47" from="-32334414#1" to="205051090#3" departLane="best" type="veh_passenger" departSpeed="max"/>
    <trip id="veh46" depart="295.91" from="184878264" to="-291713795#0" departLane="best" type="veh_passenger" departSpeed="max"/>
    <trip id="veh47" depart="302.34" from="32334348#4" to="184878268#0" departLane="best" type="veh_passenger"/>
    <trip id="veh48" depart="308.77" from="-1187542326#1" to="32894201#1" departLane="best" type="veh_passenger" departSpeed="max"/>
    <trip id="veh49" depart="315.20" from="32334412#0" to="32893806#1" departLane="best" type="veh_passenger" departSpeed="max"/>
    <trip id="veh50" depart="321.64" from="-32893806#1" to="-1187542330#0" departLane="best" type="veh_passenger"/>
    <trip id="veh51" depart="328.07" from="32334412#0" to="338227895#1" departLane="best" type="veh_passenger" departSpeed="max"/>
    <trip id="veh52" depart="334.50" from="-184884899#2" to="1187542326#1" departLane="best" type="veh_passenger" departSpeed="max"/>
    <trip id="veh53" depart="340.93" from="-184884893#1" to="32334372#1" departLane="best" type="veh_passenger" departSpeed="max"/>
    <trip id="veh54" depart="347.37" from="32334345#0" to="-205051090#2" departLane="best" type="veh_passenger" departSpeed="max"/>
    <trip id="veh55" depart="353.80" from="1124352813#1" to="184878281#1" departLane="best" type="veh_passenger"/>
    <trip id="veh56" depart="360.23" from="-32334402#1" to="32894016#1" departLane="best" type="veh_passenger" departSpeed="max"/>
    <trip id="veh57" depart="366.67" from="-338227907#0" to="-32334350#0" departLane="best" type="veh_passenger"/>
    <trip id="veh58" depart="373.10" from="-32334362#1" to="-32893802#2" departLane="best" type="veh_passenger"/>
    <trip id="veh59" depart="379.53" from="971077567#0" to="291713793#2" departLane="best" type="veh_passenger" departSpeed="max"/>
    <trip id="veh60" depart="385.96" from="-573729942#2" to="1187542339#1" departLane="best" type="veh_passenger"/>
    <trip id="veh61" depart="392.40" from="-291708977#1" to="-32334362#0" departLane="best" type="veh_passenger"/>
    <trip id="veh62" depart="398.83" from="-32894006#2" to="184884883" departLane="best" type="veh_passenger"/>
    <trip id="veh63" depart="405.26" from="-32334371#0" to="-32334350#5" departLane="best" type="veh_passenger"/>
    <trip id="veh64" depart="411.69" from="-184884894#0" to="205051076#1" departLane="best" type="veh_passenger"/>
    <trip id="veh65" depart="418.13" from="-32334370#1" to="32894196#1" departLane="best" type="veh_passenger" departSpeed="max"/>
    <trip id="veh66" depart="424.56" from="32334401" to="-1187542339#0" departLane="best" type="veh_passenger"/>
    <trip id="veh67" depart="430.99" from="-32334372#1" to="291713797#2" departLane="best" type="veh_passenger" departSpeed="max"/>
    <trip id="veh68" depart="437.43" from="-32334366#3" to="-27209954#0" departLane="best" type="veh_passenger"/>
    <trip id="veh69" depart="443.86" from="1124352798" to="32334401" departLane="best" type="veh_passenger"/>
    <trip id="veh70" depart="450.29" from="32334366#3" to="-32334344#1" departLane="best" type="veh_passenger"/>
    <trip id="veh71" depart="456.72" from="-205015386#0" to="1124352799" departLane="best" type="veh_passenger"/>
    <trip id="veh72" depart="463.16" from="-338227907#1" to="1124394028#2" departLane="best" type="veh_passenger"/>
    <trip id="veh73" depart="469.59" from="291713796#0" to="308793642#4" departLane="best" type="veh_passenger" departSpeed="max"/>
    <trip id="veh74" depart="476.02" from="573729943#1" to="-184884901#1" departLane="best" type="veh_passenger"/>
    <trip id="veh75" depart="482.45" from="-32894200#1" to="-32894006#1" departLane="best" type="veh_passenger" departSpeed="max"/>
    <trip id="veh76" depart="488.89" from="32334403#1" to="-32334389#0" departLane="best" type="veh_passenger"/>
    <trip id="veh77" depart="495.32" from="-32334348#3" to="1124352851#1" departLane="best" type="veh_passenger"/>
    <trip id="veh78" depart="501.75" from="-32334397#1" to="32894200#1" departLane="best" type="veh_passenger"/>
    <trip id="veh79" depart="508.19" from="-573729943#0" to="32894006#1" departLane="best" type="veh_passenger"/>
    <trip id="veh80" depart="514.62" from="971077567#3" to="32893806#2" departLane="best" type="veh_passenger"/>
    <trip id="veh81" depart="521.05" from="340767513#2" to="32894200#1" departLane="best" type="veh_passenger"/>
    <trip id="veh82" depart="527.48" from="32334397#1" to="-291713797#3" departLane="best" type="veh_passenger"/>
    <trip id="veh83" depart="533.92" from="1124352850#0" to="-32334350#0" departLane="best" type="veh_passenger"/>
    <trip id="veh84" depart="540.35" from="-32894200#1" to="-1187542330#1" departLane="best" type="veh_passenger" departSpeed="max"/>
    <trip id="veh85" depart="546.78" from="-32334402#1" to="32334398#6" departLane="best" type="veh_passenger" departSpeed="max"/>
    <trip id="veh86" depart="553.21" from="-94667870#1" to="1012105638" departLane="best" type="veh_passenger" departSpeed="max"/>
    <trip id="veh87" depart="559.65" from="1187542323" to="32334348#5" departLane="best" type="veh_passenger" departSpeed="max"/>
    <trip id="veh88" depart="566.08" from="-308795346#2" to="-32334404#4" departLane="best" type="veh_passenger" departSpeed="max"/>
    <trip id="veh89" depart="572.51" from="340767513#2" to="184884874" departLane="best" type="veh_passenger"/>
    <trip id="veh90" depart="578.95" from="1124352867" to="32894001#1" departLane="best" type="veh_passenger"/>
    <trip id="veh91" depart="585.38" from="-308795346#2" to="352919306#2" departLane="best" type="veh_passenger" departSpeed="max"/>
    <trip id="veh92" depart="591.81" from="-184884899#1" to="-32334342#0" departLane="best" type="veh_passenger"/>
    <trip id="veh93" depart="598.24" from="1187542338#0" to="308793642#5" departLane="best" type="veh_passenger" departSpeed="max"/>
    <trip id="veh94" depart="604.68" from="-32334372#1" to="-205016072#1" departLane="best" type="veh_passenger" departSpeed="max"/>
    <trip id="veh95" depart="611.11" from="1187542338#0" to="184884901#2" departLane="best" type="veh_passenger" departSpeed="max"/>
    <trip id="veh96" depart="617.54" from="-338227894#0" to="184884874" departLane="best" type="veh_passenger"/>
    <trip id="veh97" depart="623.98" from="118119583#0" to="32894283#1" departLane="best" type="veh_passenger" departSpeed="max"/>
    <trip id="veh98" depart="630.41" from="-32334362#2" to="32334348#3" departLane="best" type="veh_passenger" departSpeed="max"/>
    <trip id="veh99" depart="636.84" from="-32334388#1" to="-573729942#0" departLane="best" type="veh_passenger"/>
    <trip id="veh100" depart="643.27" from="-184884894#2" to="1124352855#1" departLane="best" type="veh_passenger"/>
    <trip id="veh101" depart="649.71" from="971077567#1" to="996875641" departLane="best" type="veh_passenger"/>
    <trip id="veh102" depart="656.14" from="-184884894#2" to="-32334350#0" departLane="best" type="veh_passenger"/>
    <trip id="veh103" depart="662.57" from="-32334402#1" to="32894283#1" departLane="best" type="veh_passenger" departSpeed="max"/>
    <trip id="veh104" depart="669.00" from="32334412#0" to="32894019#0" departLane="best" type="veh_passenger" departSpeed="max"/>
    <trip id="veh105" depart="675.44" from="-32894025#4" to="-291713796#0" departLane="best" type="veh_passenger" departSpeed="max"/>
    <trip id="veh106" depart="681.87" from="32334392#0" to="32334342#2" departLane="best" type="veh_passenger" departSpeed="max"/>
    <trip id="veh107" depart="688.30" from="184878264" to="94667874" departLane="best" type="veh_passenger" departSpeed="max"/>
    <trip id="veh108" depart="694.74" from="184884865#0" to="-1124394028#2" departLane="best" type="veh_passenger"/>
    <trip id="veh109" depart="701.17" from="32334371#0" to="-32334409#1" departLane="best" type="veh_passenger"/>
    <trip id="veh110" depart="707.60" from="184884894#0" to="32894283#1" departLane="best" type="veh_passenger"/>
    <trip id="veh111" depart="714.03" from="-291713795#1" to="-205016072#0" departLane="best" type="veh_passenger" departSpeed="max"/>
    <trip id="veh112" depart="720.47" from="-205051079#0" to="184878281#1" departLane="best" type="veh_passenger"/>
    <trip id="veh113" depart="726.90" from="-32334404#0" to="184884894#3" departLane="best" type="veh_passenger"/>
    <trip id="veh114" depart="733.33" from="291713794#0" to="-32334348#0" departLane="best" type="veh_passenger" departSpeed="max"/>
    <trip id="veh115" depart="739.76" from="184884854#1" to="-32334392#0" departLane="best" type="veh_passenger"/>
    <trip id="veh116" depart="746.20" from="1124352851#0" to="32894196#1" departLane="best" type="veh_passenger"/>
    <trip id="veh117" depart="752.63" from="32334396#6" to="-184884893#0" departLane="best" type="veh_passenger"/>
    <trip id="veh118" depart="759.06" from="-1012105638" to="32334396#3" departLane="best" type="veh_passenger" departSpeed="max"/>
    <trip id="veh119" depart="765.50" from="184884854#4" to="-32334392#0" departLane="best" type="veh_passenger"/>
    <trip id="veh120" depart="771.93" from="-338227908#4" to="-118119583#0" departLane="best" type="veh_passenger"/>
    <trip id="veh121" depart="778.36" from="-184884894#3" to="32894020#2" departLane="best" type="veh_passenger" departSpeed="max"/>
    <trip id="veh122" depart="784.79" from="32894001#1" to="184878279#0" departLane="best" type="veh_passenger"/>
    <trip id="veh123" depart="791.23" from="32334392#0" to="184884874" departLane="best" type="veh_passenger" departSpeed="max"/>
    <trip id="veh124" depart="797.66" from="-308793642#4" to="-205051090#0" departLane="best" type="veh_passenger"/>
    <trip id="veh125" depart="804.09" from="-32893806#1" to="32894029#1" departLane="best" type="veh_passenger"/>
    <trip id="veh126" depart="810.52" from="32334362#0" to="32894006#1" departLane="best" type="veh_passenger" departSpeed="max"/>
    <trip id="veh127" depart="816.96" from="32894001#0" to="-32334350#0" departLane="best" type="veh_passenger" departSpeed="max"/>
    <trip id="veh128" depart="823.39" from="-32334397#1" to="-184884917#0" departLane="best" type="veh_passenger"/>
    <trip id="veh129" depart="829.82" from="32334348#5" to="32894020#2" departLane="best" type="veh_passenger"/>
    <trip id="veh130" depart="836.26" from="-32894201#1" to="184884917#1" departLane="best" type="veh_passenger" departSpeed="max"/>
    <trip id="veh131" depart="842.69" from="-308795346#2" to="32894201#1" departLane="best" type="veh_passenger" departSpeed="max"/>
    <trip id="veh132" depart="849.12" from="32334403#3" to="696903441#0" departLane="best" type="veh_passenger"/>
    <trip id="veh133" depart="855.55" from="32334367#2" to="32894019#1" departLane="best" type="veh_passenger"/>
    <trip id="veh134" depart="861.99" from="-1187542330#1" to="32334366#1" departLane="best" type="veh_passenger"/>
    <trip id="veh135" depart="868.42" from="-32894001#4" to="32894201#1" departLane="best" type="veh_passenger"/>
    <trip id="veh136" depart="874.85" from="32334364#0" to="32894013" departLane="best" type="veh_passenger"/>
    <trip id="veh137" depart="881.28" from="32334367#2" to="-32334396#0" departLane="best" type="veh_passenger"/>
    <trip id="veh138" depart="887.72" from="32334350#1" to="-184884918#0" departLane="best" type="veh_passenger"/>
    <trip id="veh139" depart="894.15" from="32334409#1" to="32894001#6" departLane="best" type="veh_passenger"/>
    <trip id="veh140" depart="900.58" from="-32334368#2" to="32334413#1" departLane="best" type="veh_passenger"/>
    <trip id="veh141" depart="907.02" from="-94667874" to="-32334412#0" departLane="best" type="veh_passenger" departSpeed="max"/>
    <trip id="veh142" depart="913.45" from="-1187542330#0" to="-32334345#0" departLane="best" type="veh_passenger"/>
    <trip id="veh143" depart="919.88" from="340767513#1" to="-32334398#1" departLane="best" type="veh_passenger"/>
    <trip id="veh144" depart="926.31" from="352919306#1" to="-32334323#2" departLane="best" type="veh_passenger"/>
    <trip id="veh145" depart="932.75" from="338227908#2" to="-32334392#3" departLane="best" type="veh_passenger"/>
    <trip id="veh146" depart="939.18" from="-205051079#1" to="1124352813#1" departLane="best" type="veh_passenger"/>
    <trip id="veh147" depart="945.61" from="291713796#0" to="-32893803" departLane="best" type="veh_passenger" departSpeed="max"/>
    <trip id="veh148" depart="952.04" from="1187542340" to="1187542338#1" departLane="best" type="veh_passenger" departSpeed="max"/>
    <trip id="veh149" depart="958.48" from="-32894196#3" to="184884871#0" departLane="best" type="veh_passenger"/>
    <trip id="veh150" depart="964.91" from="-32334398#2" to="32334345#1" departLane="best" type="veh_passenger"/>
    <trip id="veh151" depart="971.34" from="-1012105638" to="32894200#1" departLane="best" type="veh_passenger" departSpeed="max"/>
    <trip id="veh152" depart="977.78" from="118119597#0" to="32334350#1" departLane="best" type="veh_passenger" departSpeed="max"/>
    <trip id="veh153" depart="984.21" from="-32894020#2" to="-1187542339#0" departLane="best" type="veh_passenger" departSpeed="max"/>
    <trip id="veh154" depart="990.64" from="184884894#0" to="-32894001#0" departLane="best" type="veh_passenger"/>
    <trip id="veh155" depart="997.07" from="291713794#0" to="-32334409#2" departLane="best" type="veh_passenger" departSpeed="max"/>
    <trip id="veh156" depart="1003.51" from="-32893806#2" to="-696903442#1" departLane="best" type="veh_passenger" departSpeed="max"/>
    <trip id="veh157" depart="1009.94" from="-32894200#1" to="-32334404#3" departLane="best" type="veh_passenger" departSpeed="max"/>
    <trip id="veh158" depart="1016.37" from="-291713793#2" to="1012105638" departLane="best" type="veh_passenger" departSpeed="max"/>
    <trip id="veh159" depart="1022.80" from="32894196#0" to="308795346#1" departLane="best" type="veh_passenger" departSpeed="max"/>
    <trip id="veh160" depart="1029.24" from="32894001#0" to="184884901#2" departLane="best" type="veh_passenger" departSpeed="max"/>
    <trip id="veh161" depart="1035.67" from="-32334414#1" to="184878281#1" departLane="best" type="veh_passenger" departSpeed="max"/>
    <trip id="veh162" depart="1042.10" from="-1012105638" to="-32334401" departLane="best" type="veh_passenger" departSpeed="max"/>
    <trip id="veh163" depart="1048.54" from="-340767513#1" to="184884874" departLane="best" type="veh_passenger"/>
    <trip id="veh164" depart="1054.97" from="184884865#0" to="1124352870#0" departLane="best" type="veh_passenger"/>
    <trip id="veh165" depart="1061.40" from="-573729942#5" to="-32334350#0" departLane="best" type="veh_passenger"/>
    <trip id="veh166" depart="1067.83" from="32334362#0" to="-308793642#4" departLane="best" type="veh_passenger" departSpeed="max"/>
    <trip id="veh167" depart="1074.27" from="-184884899#2" to="1187542339#1" departLane="best" type="veh_passenger" departSpeed="max"/>
    <trip id="veh168" depart="1080.70" from="184878282#1" to="-32894001#4" departLane="best" type="veh_passenger"/>
    <trip id="veh169" depart="1087.13" from="184884917#0" to="-32334362#0" departLane="best" type="veh_passenger" departSpeed="max"/>
    <trip id="veh170" depart="1093.56" from="-32334350#5" to="-118119586#2" departLane="best" type="veh_passenger"/>
    <trip id="veh171" depart="1100.00" from="-32334392#3" to="1187542315#0" departLane="best" type="veh_passenger"/>
    <trip id="veh172" depart="1106.43" from="32334397#4" to="-1187542340" departLane="best" type="veh_passenger"/>
    <trip id="veh173" depart="1112.86" from="-32894283#1" to="205016072#1" departLane="best" type="veh_passenger" departSpeed="max"/>
    <trip id="veh174" depart="1119.30" from="-32334350#1" to="308795349#1" departLane="best" type="veh_passenger"/>
    <trip id="veh175" depart="1125.73" from="1124352853#1" to="-32334371#0" departLane="best" type="veh_passenger"/>
    <trip id="veh176" depart="1132.16" from="184884866#0" to="-1124394028#0" departLane="best" type="veh_passenger"/>
    <trip id="veh177" depart="1138.59" from="32334323#0" to="32334392#3" departLane="best" type="veh_passenger" departSpeed="max"/>
    <trip id="veh178" depart="1145.03" from="-205051076#2" to="1124352797" departLane="best" type="veh_passenger"/>
    <trip id="veh179" depart="1151.46" from="-32334342#0" to="352919306#0" departLane="best" type="veh_passenger"/>
    <trip id="veh180" depart="1157.89" from="118119583#0" to="-1187542325" departLane="best" type="veh_passenger" departSpeed="max"/>
    <trip id="veh181" depart="1164.32" from="-94667870#1" to="32334404#4" departLane="best" type="veh_passenger" departSpeed="max"/>
    <trip id="veh182" depart="1170.76" from="1187542338#0" to="338227908#0" departLane="best" type="veh_passenger" departSpeed="max"/>
    <trip id="veh183" depart="1177.19" from="291713794#0" to="1187542332#2" departLane="best" type="veh_passenger" departSpeed="max"/>
    <trip id="veh184" depart="1183.62" from="32334390#2" to="184878281#1" departLane="best" type="veh_passenger"/>
    <trip id="veh185" depart="1190.06" from="1124352813#1" to="-32334392#0" departLane="best" type="veh_passenger"/>
    <trip id="veh186" depart="1196.49" from="-32334396#6" to="205051090#0" departLane="best" type="veh_passenger"/>
    <trip id="veh187" depart="1202.92" from="32334345#0" to="184878263" departLane="best" type="veh_passenger" departSpeed="max"/>
    <trip id="veh188" depart="1209.35" from="184878274#1" to="-32334396#7" departLane="best" type="veh_passenger"/>
    <trip id="veh189" depart="1215.79" from="-184884894#3" to="-32334398#6" departLane="best" type="veh_passenger" departSpeed="max"/>
    <trip id="veh190" depart="1222.22" from="1187542315#0" to="-291713793#0" departLane="best" type="veh_passenger"/>
    <trip id="veh191" depart="1228.65" from="-32334371#1" to="308795349#1" departLane="best" type="veh_passenger"/>
    <trip id="veh192" depart="1235.08" from="27209954#3" to="-1187542338#0" departLane="best" type="veh_passenger"/>
    <trip id="veh193" depart="1241.52" from="-32894283#1" to="-32334348#4" departLane="best" type="veh_passenger" departSpeed="max"/>
    <trip id="veh194" depart="1247.95" from="32334398#5" to="32334389#2" departLane="best" type="veh_passenger"/>
    <trip id="veh195" depart="1254.38" from="-32894018#1" to="32334370#1" departLane="best" type="veh_passenger" departSpeed="max"/>
    <trip id="veh196" depart="1260.82" from="32334398#2" to="338227978" departLane="best" type="veh_passenger"/>
    <trip id="veh197" depart="1267.25" from="-338227894#0" to="32334368#2" departLane="best" type="veh_passenger"/>
    <trip id="veh198" depart="1273.68" from="1187542317#2" to="184884894#3" departLane="best" type="veh_passenger"/>
    <trip id="veh199" depart="1280.11" from="-32334367#4" to="-32334350#5" departLane="best" type="veh_passenger"/>
    <trip id="veh200" depart="1286.55" from="-573729942#0" to="-118119597#0" departLane="best" type="veh_passenger"/>
    <trip id="veh201" depart="1292.98" from="-32894002#1" to="308795346#2" departLane="best" type="veh_passenger"/>
    <trip id="veh202" depart="1299.41" from="-32894200#1" to="-291713797#2" departLane="best" type="veh_passenger" departSpeed="max"/>
    <trip id="veh203" depart="1305.84" from="184878272#0" to="-118119597#0" departLane="best" type="veh_passenger"/>
    <trip id="veh204" depart="1312.28" from="-32894199#1" to="184884858" departLane="best" type="veh_passenger" departSpeed="max"/>
    <trip id="veh205" depart="1318.71" from="-1187542338#1" to="27209954#1" departLane="best" type="veh_passenger" departSpeed="max"/>
    <trip id="veh206" depart="1325.14" from="-291713796#2" to="1124352867" departLane="best" type="veh_passenger" departSpeed="max"/>
    <trip id="veh207" depart="1331.58" from="-184884854#1" to="-338227894#0" departLane="best" type="veh_passenger"/>
    <trip id="veh208" depart="1338.01" from="-32334366#1" to="-32894001#0" departLane="best" type="veh_passenger"/>
    <trip id="veh209" depart="1344.44" from="32334344#0" to="-338227894#0" departLane="best" type="veh_passenger"/>
    <trip id="veh210" depart="1350.87" from="32334323#0" to="32893806#1" departLane="best" type="veh_passenger" departSpeed="max"/>
    <trip id="veh211" depart="1357.31" from="-32334398#0" to="-184884854#3" departLane="best" type="veh_passenger"/>
    <trip id="veh212" depart="1363.74" from="971077567#3" to="-32894025#1" departLane="best" type="veh_passenger"/>
    <trip id="veh213" depart="1370.17" from="184884859#2" to="32334398#4" departLane="best" type="veh_passenger"/>
    <trip id="veh214" depart="1376.60" from="32894196#4" to="-32334345#2" departLane="best" type="veh_passenger"/>
    <trip id="veh215" depart="1383.04" from="-1187542326#1" to="-291713795#0" departLane="best" type="veh_passenger" departSpeed="max"/>
    <trip id="veh216" depart="1389.47" from="-291713793#2" to="291713797#3" departLane="best" type="veh_passenger" departSpeed="max"/>
    <trip id="veh217" depart="1395.90" from="205051090#2" to="32334390#1" departLane="best" type="veh_passenger"/>
    <trip id="veh218" depart="1402.34" from="-308795349#1" to="184884899#1" departLane="best" type="veh_passenger" departSpeed="max"/>
    <trip id="veh219" depart="1408.77" from="308795349#0" to="-205016072#0" departLane="best" type="veh_passenger"/>
    <trip id="veh220" depart="1415.20" from="-205051079#1" to="-118119597#0" departLane="best" type="veh_passenger"/>
    <trip id="veh221" depart="1421.63" from="-32893806#2" to="308795346#1" departLane="best" type="veh_passenger" departSpeed="max"/>
    <trip id="veh222" depart="1428.07" from="338227895#1" to="-573729942#1" departLane="best" type="veh_passenger"/>
    <trip id="veh223" depart="1434.50" from="291713793#0" to="-1187542340" departLane="best" type="veh_passenger" departSpeed="max"/>
    <trip id="veh224" depart="1440.93" from="205016072#1" to="205015386#1" departLane="best" type="veh_passenger"/>
    <trip id="veh225" depart="1447.36" from="-205015386#2" to="32334396#6" departLane="best" type="veh_passenger" departSpeed="max"/>
    <trip id="veh226" depart="1453.80" from="32334397#4" to="184884894#3" departLane="best" type="veh_passenger"/>
    <trip id="veh227" depart="1460.23" from="-291708977#1" to="94667870#1" departLane="best" type="veh_passenger"/>
    <trip id="veh228" depart="1466.66" from="32334350#0" to="-32894019#1" departLane="best" type="veh_passenger" departSpeed="max"/>
    <trip id="veh229" depart="1473.10" from="-340767513#0" to="-32894196#0" departLane="best" type="veh_passenger"/>
    <trip id="veh230" depart="1479.53" from="1124352870#0" to="-32894006#3" departLane="best" type="veh_passenger"/>
    <trip id="veh231" depart="1485.96" from="32334397#4" to="32334414#1" departLane="best" type="veh_passenger"/>
    <trip id="veh232" depart="1492.39" from="27209954#4" to="1124352814#0" departLane="best" type="veh_passenger"/>
    <trip id="veh233" depart="1498.83" from="291713796#0" to="573729942#1" departLane="best" type="veh_passenger" departSpeed="max"/>