<?xml version="1.0" encoding="UTF-8"?>

<!-- generated on 2026-03-11 17:21:11.898233 by Eclipse SUMO osmWebWizard.py v1_26_0+0000-fa7df22d7f1
<configuration>
    <net-file value="C:\Users\samle\AppData\Local\Programs\Microsoft VS Code\2026-03-11-17-20-46\osm.net.xml.gz"/>
    <additional-files value="C:\Users\samle\AppData\Local\Programs\Microsoft VS Code\2026-03-11-17-20-46\osm_stops.add.xml,C:\Users\samle\AppData\Local\Programs\Microsoft VS Code\2026-03-11-17-20-46\osm_pt.rou.xml"/>
    <output-trip-file value="C:\Users\samle\AppData\Local\Programs\Microsoft VS Code\2026-03-11-17-20-46\osm.pedestrian.trips.xml"/>
    <route-file value="C:\Users\samle\AppData\Local\Programs\Microsoft VS Code\2026-03-11-17-20-46\osm.pedestrian.rou.xml"/>
    <persontrips value="True"/>
    <persontrip.walk-opposite-factor value="0.8"/>
    <prefix value="ped"/>
    <trip-attributes value="modes=&quot;public&quot;"/>
    <vehicle-class value="pedestrian"/>
    <fringe-factor value="1"/>
    <seed value="45"/>
    <insertion-density value="10.0"/>
    <duarouter-weights.tls-penalty value="20"/>
</configuration>
-->

<routes xmlns:xsi="http://www.w3.org/2001/XMLSchema-instance" xsi:noNamespaceSchemaLocation="http://sumo.dlr.de/xsd/routes_file.xsd">
    <vType id="ped_pedestrian" vClass="pedestrian"/>
    <person id="ped0" depart="0.00" type="ped_pedestrian">
        <personTrip from="1013647803#2" to="333727835#6" modes="public"/>
    </person>
    <person id="ped1" depart="7.89" type="ped_pedestrian">
        <personTrip from="-35177165#4" to="114899978#0" modes="public"/>
    </person>
    <person id="ped2" depart="15.79" type="ped_pedestrian">
        <personTrip from="-310292427#6" to="-1007907997#2" modes="public"/>
    </person>
    <person id="ped3" depart="23.68" type="ped_pedestrian">
        <personTrip from="1037064067#1" to="-46129097#1" modes="public"/>
    </person>
    <person id="ped4" depart="31.57" type="ped_pedestrian">
        <personTrip from="10801858#9" to="672426744#3" modes="public"/>
    </person>
    <person id="ped5" depart="39.47" type="ped_pedestrian">
        <personTrip from="-116895895#3" to="46129118#1" modes="public"/>
    </person>
    <person id="ped6" depart="47.36" type="ped_pedestrian">
        <personTrip from="-46380842#1" to="985016785#2" modes="public"/>
    </person>
    <person id="ped7" depart="55.25" type="ped_pedestrian">
        <personTrip from="668801471#3" to="1000766732" modes="public"/>
    </person>
    <person id="ped8" depart="63.15" type="ped_pedestrian">
        <personTrip from="988996012" to="55891715#1" modes="public"/>
    </person>
    <person id="ped9" depart="71.04" type="ped_pedestrian">
        <personTrip from="52135910#0" to="996570115#9" modes="public"/>
    </person>
    <person id="ped10" depart="78.93" type="ped_pedestrian">
        <personTrip from="-794624970" to="1004615767#1" modes="public"/>
    </person>
    <person id="ped11" depart="86.83" type="ped_pedestrian">
        <personTrip from="809945761#0" to="998107627#4" modes="public"/>
    </person>
    <person id="ped12" depart="94.72" type="ped_pedestrian">
        <personTrip from="-424926868#1" to="-36667189#1" modes="public"/>
    </person>
    <person id="ped13" depart="102.61" type="ped_pedestrian">
        <personTrip from="725249383#1" to="1117069533#1" modes="public"/>
    </person>
    <person id="ped14" depart="110.51" type="ped_pedestrian">
        <personTrip from="14540342#4" to="993036872#0" modes="public"/>
    </person>
    <person id="ped15" depart="118.40" type="ped_pedestrian">
        <personTrip from="725249377#11" to="47567647#1" modes="public"/>
    </person>
    <person id="ped16" depart="126.29" type="ped_pedestrian">
        <personTrip from="993036862#2" to="605959217" modes="public"/>
    </person>
    <person id="ped17" depart="134.19" type="ped_pedestrian">
        <personTrip from="985091885#6" to="46410633#1" modes="public"/>
    </person>
    <person id="ped18" depart="142.08" type="ped_pedestrian">
        <personTrip from="46129071#0" to="-261979202#0" modes="public"/>
    </person>
    <person id="ped19" depart="149.97" type="ped_pedestrian">
        <personTrip from="996240761#3" to="996240761#6" modes="public"/>
    </person>
    <person id="ped20" depart="157.87" type="ped_pedestrian">
        <personTrip from="-1037064064#2" to="35177165#4" modes="public"/>
    </person>
    <person id="ped21" depart="165.76" type="ped_pedestrian">
        <personTrip from="46129115#1" to="10670084#1" modes="public"/>
    </person>
    <person id="ped22" depart="173.65" type="ped_pedestrian">
        <personTrip from="1460088175#1" to="988993430" modes="public"/>
    </person>
    <person id="ped23" depart="181.55" type="ped_pedestrian">
        <personTrip from="-47528897#2" to="28595682#9" modes="public"/>
    </person>
    <person id="ped24" depart="189.44" type="ped_pedestrian">
        <personTrip from="-35177168#3" to="14540342#0" modes="public"/>
    </person>
    <person id="ped25" depart="197.33" type="ped_pedestrian">
        <personTrip from="995547621" to="46129098#1" modes="public"/>
    </person>
    <person id="ped26" depart="205.23" type="ped_pedestrian">
        <personTrip from="-114900092#6" to="993036858" modes="public"/>
    </person>
    <person id="ped27" depart="213.12" type="ped_pedestrian">
        <personTrip from="47528913#1" to="402545592#2" modes="public"/>
    </person>
    <person id="ped28" depart="221.01" type="ped_pedestrian">
        <personTrip from="-985091885#5" to="46129113#1" modes="public"/>
    </person>
    <person id="ped29" depart="228.91" type="ped_pedestrian">
        <personTrip from="-45897807" to="46129116" modes="public"/>
    </person>
    <person id="ped30" depart="236.80" type="ped_pedestrian">
        <personTrip from="45984547#2" to="1209622245#0" modes="public"/>
    </person>
    <person id="ped31" depart="244.69" type="ped_pedestrian">
        <personTrip from="1020218153#2" to="28257081#0" modes="public"/>
    </person>
    <person id="ped32" depart="252.59" type="ped_pedestrian">
        <personTrip from="1121990961#4" to="998107635#1" modes="public"/>
    </person>
    <person id="ped33" depart="260.48" type="ped_pedestrian">
        <personTrip from="46410633#4" to="402545591#3" modes="public"/>
    </person>
    <person id="ped34" depart="268.37" type="ped_pedestrian">
        <personTrip from="47567647#5" to="350484353#4" modes="public"/>
    </person>
    <person id="ped35" depart="276.26" type="ped_pedestrian">
        <personTrip from="998107634#1" to="988996005#0" modes="public"/>
    </person>
    <person id="ped36" depart="284.16" type="ped_pedestrian">
        <personTrip from="-44348040#1" to="46129097#1" modes="public"/>
    </person>
    <person id="ped37" depart="292.05" type="ped_pedestrian">
        <personTrip from="-310292416#0" to="-46380818#1" modes="public"/>
    </person>
    <person id="ped38" depart="299.94" type="ped_pedestrian">
        <personTrip from="1460018422#0" to="46129086#6" modes="public"/>
    </person>
    <person id="ped39" depart="307.84" type="ped_pedestrian">
        <personTrip from="-35177166#0" to="52135874" modes="public"/>
    </person>
    <person id="ped40" depart="315.73" type="ped_pedestrian">
        <personTrip from="771229148#3" to="28595668#2" modes="public"/>
    </person>
    <person id="ped41" depart="323.62" type="ped_pedestrian">
        <personTrip from="988993428#0" to="1444391074#0" modes="public"/>
    </person>
    <person id="ped42" depart="331.52" type="ped_pedestrian">
        <personTrip from="1460042481#1" to="1360476883#0" modes="public"/>
    </person>
    <person id="ped43" depart="339.41" type="ped_pedestrian">
        <personTrip from="55556411#0" to="995547622" modes="public"/>
    </person>
    <person id="ped44" depart="347.30" type="ped_pedestrian">
        <personTrip from="988993430" to="493547203#1" modes="public"/>
    </person>
    <person id="ped45" depart="355.20" type="ped_pedestrian">
        <personTrip from="1003394068" to="125293742#2" modes="public"/>
    </person>
    <person id="ped46" depart="363.09" type="ped_pedestrian">
        <personTrip from="995547626#1" to="1000770915" modes="public"/>
    </person>
    <person id="ped47" depart="370.98" type="ped_pedestrian">
        <personTrip from="402545592#2" to="54571057" modes="public"/>
    </person>
    <person id="ped48" depart="378.88" type="ped_pedestrian">
        <personTrip from="996570115#10" to="47528894#1" modes="public"/>
    </person>
    <person id="ped49" depart="386.77" type="ped_pedestrian">
        <personTrip from="45984552#2" to="-238187954#5" modes="public"/>
    </person>
    <person id="ped50" depart="394.66" type="ped_pedestrian">
        <personTrip from="996240761#2" to="1002563112#1" modes="public"/>
    </person>
    <person id="ped51" depart="402.56" type="ped_pedestrian">
        <personTrip from="46129113#0" to="1272942443#7" modes="public"/>
    </person>
    <person id="ped52" depart="410.45" type="ped_pedestrian">
        <personTrip from="47528897#1" to="988580230#0" modes="public"/>
    </person>
    <person id="ped53" depart="418.34" type="ped_pedestrian">
        <personTrip from="997106305" to="985016790#1" modes="public"/>
    </person>
    <person id="ped54" depart="426.24" type="ped_pedestrian">
        <personTrip from="988993435" to="1444391070" modes="public"/>
    </person>
    <person id="ped55" depart="434.13" type="ped_pedestrian">
        <personTrip from="-1470433045" to="800627457#2" modes="public"/>
    </person>
    <person id="ped56" depart="442.02" type="ped_pedestrian">
        <personTrip from="999442795" to="298236187#0" modes="public"/>
    </person>
    <person id="ped57" depart="449.92" type="ped_pedestrian">
        <personTrip from="996237862#1" to="45897636#1" modes="public"/>
    </person>
    <person id="ped58" depart="457.81" type="ped_pedestrian">
        <personTrip from="14540342#1" to="988993426#1" modes="public"/>
    </person>
    <person id="ped59" depart="465.70" type="ped_pedestrian">
        <personTrip from="-298236180#1" to="1209622245#1" modes="public"/>
    </person>
    <person id="ped60" depart="473.60" type="ped_pedestrian">
        <personTrip from="52135874" to="-35177165#4" modes="public"/>
    </person>
    <person id="ped61" depart="481.49" type="ped_pedestrian">
        <personTrip from="1001027007" to="1460051659" modes="public"/>
    </person>
    <person id="ped62" depart="489.38" type="ped_pedestrian">
        <personTrip from="672426744#3" to="479018890#1" modes="public"/>
    </person>
    <person id="ped63" depart="497.28" type="ped_pedestrian">
        <personTrip from="1460051661#1" to="45984549#0" modes="public"/>
    </person>
    <person id="ped64" depart="505.17" type="ped_pedestrian">
        <personTrip from="-45897636#3" to="47567647#0" modes="public"/>
    </person>
    <person id="ped65" depart="513.06" type="ped_pedestrian">
        <personTrip from="985016787#3" to="999006592" modes="public"/>
    </person>
    <person id="ped66" depart="520.96" type="ped_pedestrian">
        <personTrip from="560852257#7" to="998107639#0" modes="public"/>
    </person>
    <person id="ped67" depart="528.85" type="ped_pedestrian">
        <personTrip from="47528897#3" to="1020218153#1" modes="public"/>
    </person>
    <person id="ped68" depart="536.74" type="ped_pedestrian">
        <personTrip from="993036861" to="479018890#0" modes="public"/>
    </person>
    <person id="ped69" depart="544.64" type="ped_pedestrian">
        <personTrip from="46380812#0" to="-47528911#0" modes="public"/>
    </person>
    <person id="ped70" depart="552.53" type="ped_pedestrian">
        <personTrip from="45897636#0" to="114899978#2" modes="public"/>
    </person>
    <person id="ped71" depart="560.42" type="ped_pedestrian">
        <personTrip from="45984548#0" to="996570120#0" modes="public"/>
    </person>
    <person id="ped72" depart="568.32" type="ped_pedestrian">
        <personTrip from="-46129103#0" to="44344723#0" modes="public"/>
    </person>
    <person id="ped73" depart="576.21" type="ped_pedestrian">
        <personTrip from="988996002#0" to="-1360476883#1" modes="public"/>
    </person>
    <person id="ped74" depart="584.10" type="ped_pedestrian">
        <personTrip from="1460051669" to="114899978#0" modes="public"/>
    </person>
    <person id="ped75" depart="592.00" type="ped_pedestrian">
        <personTrip from="28533345#1" to="46380812#0" modes="public"/>
    </person>
    <person id="ped76" depart="599.89" type="ped_pedestrian">
        <personTrip from="35177168#0" to="1013647803#1" modes="public"/>
    </person>
    <person id="ped77" depart="607.78" type="ped_pedestrian">
        <personTrip from="993036864#1" to="985091885#5" modes="public"/>
    </person>
    <person id="ped78" depart="615.68" type="ped_pedestrian">
        <personTrip from="996225596#1" to="-46129103#6" modes="public"/>
    </person>
    <person id="ped79" depart="623.57" type="ped_pedestrian">
        <personTrip from="415775176#6" to="1003895726#1" modes="public"/>
    </person>
    <person id="ped80" depart="631.46" type="ped_pedestrian">
        <personTrip from="-45606691#2" to="996576393" modes="public"/>
    </person>
    <person id="ped81" depart="639.36" type="ped_pedestrian">
        <personTrip from="47528914#1" to="28664119#1" modes="public"/>
    </person>
    <person id="ped82" depart="647.25" type="ped_pedestrian">
        <personTrip from="800627454#1" to="988996013#0" modes="public"/>
    </person>
    <person id="ped83" depart="655.14" type="ped_pedestrian">
        <personTrip from="996237865#0" to="36667189#0" modes="public"/>
    </person>
    <person id="ped84" depart="663.04" type="ped_pedestrian">
        <personTrip from="1460088176#4" to="-996570115#12" modes="public"/>
    </person>
    <person id="ped85" depart="670.93" type="ped_pedestrian">
        <personTrip from="402545592#2" to="993036862#2" modes="public"/>
    </person>
    <person id="ped86" depart="678.82" type="ped_pedestrian">
        <personTrip from="996576397#2" to="-47528894#1" modes="public"/>
    </person>
    <person id="ped87" depart="686.72" type="ped_pedestrian">
        <personTrip from="-46129098#1" to="999442791#0" modes="public"/>
    </person>
    <person id="ped88" depart="694.61" type="ped_pedestrian">
        <personTrip from="402545592#7" to="46380854#1" modes="public"/>
    </person>
    <person id="ped89" depart="702.50" type="ped_pedestrian">
        <personTrip from="52135872#1" to="1460051671" modes="public"/>
    </person>
    <person id="ped90" depart="710.40" type="ped_pedestrian">
        <personTrip from="1460018424" to="993036865#2" modes="public"/>
    </person>
    <person id="ped91" depart="718.29" type="ped_pedestrian">
        <personTrip from="46129071#1" to="725249377#11" modes="public"/>
    </person>
    <person id="ped92" depart="726.18" type="ped_pedestrian">
        <personTrip from="35177165#4" to="55556411#1" modes="public"/>
    </person>
    <person id="ped93" depart="734.08" type="ped_pedestrian">
        <personTrip from="11527078#0" to="125293743" modes="public"/>
    </person>
    <person id="ped94" depart="741.97" type="ped_pedestrian">
        <personTrip from="114899978#5" to="10670084#1" modes="public"/>
    </person>
    <person id="ped95" depart="749.86" type="ped_pedestrian">
        <personTrip from="997106309#0" to="993036872#0" modes="public"/>
    </person>
    <person id="ped96" depart="757.76" type="ped_pedestrian">
        <personTrip from="996570122#2" to="985091885#3" modes="public"/>
    </person>
    <person id="ped97" depart="765.65" type="ped_pedestrian">
        <personTrip from="46380912#0" to="998107629" modes="public"/>
    </person>
    <person id="ped98" depart="773.54" type="ped_pedestrian">
        <personTrip from="771229149" to="46129092#0" modes="public"/>
    </person>
    <person id="ped99" depart="781.43" type="ped_pedestrian">
        <personTrip from="114899977#1" to="46129115#0" modes="public"/>
    </person>
    <person id="ped100" depart="789.33" type="ped_pedestrian">
        <personTrip from="1460088178#1" to="-93686035#1" modes="public"/>
    </person>
    <person id="ped101" depart="797.22" type="ped_pedestrian">
        <personTrip from="-668801471#8" to="-46129071#1" modes="public"/>
    </person>
    <person id="ped102" depart="805.11" type="ped_pedestrian">
        <personTrip from="491516482#1" to="1331152588" modes="public"/>
    </person>
    <person id="ped103" depart="813.01" type="ped_pedestrian">
        <personTrip from="999007928#1" to="996570115#10" modes="public"/>
    </person>
    <person id="ped104" depart="820.90" type="ped_pedestrian">
        <personTrip from="1037064068#0" to="-45897759#0" modes="public"/>
    </person>
    <person id="ped105" depart="828.79" type="ped_pedestrian">
        <personTrip from="988993427#0" to="988996014" modes="public"/>
    </person>
    <person id="ped106" depart="836.69" type="ped_pedestrian">
        <personTrip from="1272942443#5" to="773028723" modes="public"/>
    </person>
    <person id="ped107" depart="844.58" type="ped_pedestrian">
        <personTrip from="996587081#1" to="28595668#1" modes="public"/>
    </person>
    <person id="ped108" depart="852.47" type="ped_pedestrian">
        <personTrip from="28533357#1" to="46129103#4" modes="public"/>
    </person>
    <person id="ped109" depart="860.37" type="ped_pedestrian">
        <personTrip from="988996008#0" to="52135922#1" modes="public"/>
    </person>
    <person id="ped110" depart="868.26" type="ped_pedestrian">
        <personTrip from="999007928#1" to="-47528897#3" modes="public"/>
    </person>
    <person id="ped111" depart="876.15" type="ped_pedestrian">
        <personTrip from="-44348040#1" to="-46129102#1" modes="public"/>
    </person>
    <person id="ped112" depart="884.05" type="ped_pedestrian">
        <personTrip from="997106303" to="10801654#2" modes="public"/>
    </person>
    <person id="ped113" depart="891.94" type="ped_pedestrian">
        <personTrip from="-310292427#8" to="-52135874" modes="public"/>
    </person>
    <person id="ped114" depart="899.83" type="ped_pedestrian">
        <personTrip from="46380888" to="1037064067#1" modes="public"/>
    </person>
    <person id="ped115" depart="907.73" type="ped_pedestrian">
        <personTrip from="-1064871809#0" to="-120422882" modes="public"/>
    </person>
    <person id="ped116" depart="915.62" type="ped_pedestrian">
        <personTrip from="493547199#4" to="-1000775906#1" modes="public"/>
    </person>
    <person id="ped117" depart="923.51" type="ped_pedestrian">
        <personTrip from="1003895735" to="28595673#0" modes="public"/>
    </person>
    <person id="ped118" depart="931.41" type="ped_pedestrian">
        <personTrip from="1460051669" to="996576397#1" modes="public"/>
    </person>
    <person id="ped119" depart="939.30" type="ped_pedestrian">
        <personTrip from="996576398" to="35177166#2" modes="public"/>
    </person>
    <person id="ped120" depart="947.19" type="ped_pedestrian">
        <personTrip from="46129102#2" to="116895895#1" modes="public"/>
    </person>
    <person id="ped121" depart="955.09" type="ped_pedestrian">
        <personTrip from="46410633#1" to="-238187954#5" modes="public"/>
    </person>
    <person id="ped122" depart="962.98" type="ped_pedestrian">
        <personTrip from="-988580235" to="988784682" modes="public"/>
    </person>
    <person id="ped123" depart="970.87" type="ped_pedestrian">
        <personTrip from="28664120#0" to="350484353#4" modes="public"/>
    </person>
    <person id="ped124" depart="978.77" type="ped_pedestrian">
        <personTrip from="988993427#0" to="47528896" modes="public"/>
    </person>
    <person id="ped125" depart="986.66" type="ped_pedestrian">
        <personTrip from="-773028722" to="310292416#0" modes="public"/>
    </person>
    <person id="ped126" depart="994.55" type="ped_pedestrian">
        <personTrip from="990289892" to="11532930" modes="public"/>
    </person>
    <person id="ped127" depart="1002.45" type="ped_pedestrian">
        <personTrip from="997106316#1" to="-996570115#12" modes="public"/>
    </person>
    <person id="ped128" depart="1010.34" type="ped_pedestrian">
        <personTrip from="1460018425" to="-996244505#0" modes="public"/>
    </person>
    <person id="ped129" depart="1018.23" type="ped_pedestrian">
        <personTrip from="1037064066#1" to="1001027006" modes="public"/>
    </person>
    <person id="ped130" depart="1026.13" type="ped_pedestrian">
        <personTrip from="47528897#1" to="725249377#7" modes="public"/>
    </person>
    <person id="ped131" depart="1034.02" type="ped_pedestrian">
        <personTrip from="999442796" to="493547199#2" modes="public"/>
    </person>
    <person id="ped132" depart="1041.91" type="ped_pedestrian">
        <personTrip from="1013239694" to="479018891#2" modes="public"/>
    </person>
    <person id="ped133" depart="1049.81" type="ped_pedestrian">
        <personTrip from="46129098#2" to="115936848#0" modes="public"/>
    </person>
    <person id="ped134" depart="1057.70" type="ped_pedestrian">
        <personTrip from="1018986633" to="-35177168#1" modes="public"/>
    </person>
    <person id="ped135" depart="1065.59" type="ped_pedestrian">
        <personTrip from="1000770915" to="993036857" modes="public"/>
    </person>
    <person id="ped136" depart="1073.49" type="ped_pedestrian">
        <personTrip from="1315484698" to="47528897#1" modes="public"/>
    </person>
    <person id="ped137" depart="1081.38" type="ped_pedestrian">
        <personTrip from="28595673#0" to="1003895726#0" modes="public"/>
    </person>
    <person id="ped138" depart="1089.27" type="ped_pedestrian">
        <personTrip from="23693592#2" to="1001027015" modes="public"/>
    </person>
    <person id="ped139" depart="1097.17" type="ped_pedestrian">
        <personTrip from="208322133" to="-996570115#10" modes="public"/>
    </person>
    <person id="ped140" depart="1105.06" type="ped_pedestrian">
        <personTrip from="11040357#1" to="491516482#2" modes="public"/>
    </person>
    <person id="ped141" depart="1112.95" type="ped_pedestrian">
        <personTrip from="996570122#2" to="996570115#1" modes="public"/>
    </person>
    <person id="ped142" depart="1120.85" type="ped_pedestrian">
        <personTrip from="988993429" to="35177165#0" modes="public"/>
    </person>
    <person id="ped143" depart="1128.74" type="ped_pedestrian">
        <personTrip from="402545590" to="-1037064066#0" modes="public"/>
    </person>
    <person id="ped144" depart="1136.63" type="ped_pedestrian">
        <personTrip from="48114469#0" to="35177168#1" modes="public"/>
    </person>
    <person id="ped145" depart="1144.53" type="ped_pedestrian">
        <personTrip from="114899978#4" to="988997223#0" modes="public"/>
    </person>
    <person id="ped146" depart="1152.42" type="ped_pedestrian">
        <personTrip from="725249385" to="985016778#1" modes="public"/>
    </person>
    <person id="ped147" depart="1160.31" type="ped_pedestrian">
        <personTrip from="114899978#3" to="392529308" modes="public"/>
    </person>
    <person id="ped148" depart="1168.21" type="ped_pedestrian">
        <personTrip from="333727835#5" to="55891715#0" modes="public"/>
    </person>
    <person id="ped149" depart="1176.10" type="ped_pedestrian">
        <personTrip from="45897472" to="1001336777" modes="public"/>
    </person>
    <person id="ped150" depart="1183.99" type="ped_pedestrian">
        <personTrip from="993036866#1" to="44344723#2" modes="public"/>
    </person>
    <person id="ped151" depart="1191.89" type="ped_pedestrian">
        <personTrip from="-93678384#2" to="45984549#1" modes="public"/>
    </person>
    <person id="ped152" depart="1199.78" type="ped_pedestrian">
        <personTrip from="993036858" to="-668801471#4" modes="public"/>
    </person>
    <person id="ped153" depart="1207.67" type="ped_pedestrian">
        <personTrip from="-725249377#11" to="46380862#1" modes="public"/>
    </person>
    <person id="ped154" depart="1215.57" type="ped_pedestrian">
        <personTrip from="46129094#1" to="310292427#7" modes="public"/>
    </person>
    <person id="ped155" depart="1223.46" type="ped_pedestrian">
        <personTrip from="28595682#5" to="998107638" modes="public"/>
    </person>
    <person id="ped156" depart="1231.35" type="ped_pedestrian">
        <personTrip from="10801787" to="45897636#2" modes="public"/>
    </person>
    <person id="ped157" depart="1239.25" type="ped_pedestrian">
        <personTrip from="238187954#1" to="997113371" modes="public"/>
    </person>
    <person id="ped158" depart="1247.14" type="ped_pedestrian">
        <personTrip from="1444391070" to="-1004615761#1" modes="public"/>
    </person>
    <person id="ped159" depart="1255.03" type="ped_pedestrian">
        <personTrip from="28595663#1" to="44348045#4" modes="public"/>
    </person>
    <person id="ped160" depart="1262.93" type="ped_pedestrian">
        <personTrip from="725249377#4" to="46380893" modes="public"/>
    </person>
    <person id="ped161" depart="1270.82" type="ped_pedestrian">
        <personTrip from="995547630" to="1003898199#0" modes="public"/>
    </person>
    <person id="ped162" depart="1278.71" type="ped_pedestrian">
        <personTrip from="46380838#1" to="988993428#0" modes="public"/>
    </person>
    <person id="ped163" depart="1286.61" type="ped_pedestrian">
        <personTrip from="995547633#1" to="985091884#1" modes="public"/>
    </person>
    <person id="ped164" depart="1294.50" type="ped_pedestrian">
        <personTrip from="47567647#0" to="1460088177#2" modes="public"/>
    </person>
    <person id="ped165" depart="1302.39" type="ped_pedestrian">
        <personTrip from="996570115#9" to="672426744#2" modes="public"/>
    </person>
    <person id="ped166" depart="1310.28" type="ped_pedestrian">
        <personTrip from="23693592#2" to="997106303" modes="public"/>
    </person>
    <person id="ped167" depart="1318.18" type="ped_pedestrian">
        <personTrip from="995547620" to="998107634#1" modes="public"/>
    </person>
    <person id="ped168" depart="1326.07" type="ped_pedestrian">
        <personTrip from="997106309#1" to="997106308#1" modes="public"/>
    </person>
    <person id="ped169" depart="1333.96" type="ped_pedestrian">
        <personTrip from="1460088176#1" to="1460042481#1" modes="public"/>
    </person>
    <person id="ped170" depart="1341.86" type="ped_pedestrian">
        <personTrip from="998107639#1" to="-114900092#1" modes="public"/>
    </person>
    <person id="ped171" depart="1349.75" type="ped_pedestrian">
        <personTrip from="997106308#1" to="988784682" modes="public"/>
    </person>
    <person id="ped172" depart="1357.64" type="ped_pedestrian">
        <personTrip from="-996244505#0" to="46380818#0" modes="public"/>
    </person>
    <person id="ped173" depart="1365.54" type="ped_pedestrian">
        <personTrip from="1444391069#0" to="725249377#2" modes="public"/>
    </person>
    <person id="ped174" depart="1373.43" type="ped_pedestrian">
        <personTrip from="996570115#12" to="771229148#0" modes="public"/>
    </person>
    <person id="ped175" depart="1381.32" type="ped_pedestrian">
        <personTrip from="988996001#1" to="1037064067#1" modes="public"/>
    </person>
    <person id="ped176" depart="1389.22" type="ped_pedestrian">
        <personTrip from="35177166#0" to="310292425#2" modes="public"/>
    </person>
    <person id="ped177" depart="1397.11" type="ped_pedestrian">
        <personTrip from="996587081#1" to="1000766735#0" modes="public"/>
    </person>
    <person id="ped178" depart="1405.00" type="ped_pedestrian">
        <personTrip from="560852257#2" to="491516482#0" modes="public"/>
    </person>
    <person id="ped179" depart="1412.90" type="ped_pedestrian">
        <personTrip from="11527078#3" to="996576400" modes="public"/>
    </person>
    <person id="ped180" depart="1420.79" type="ped_pedestrian">
        <personTrip from="996237864#1" to="1004615770" modes="public"/>
    </person>
    <person id="ped181" depart="1428.68" type="ped_pedestrian">
        <personTrip from="-46129094#1" to="54571057" modes="public"/>
    </person>
    <person id="ped182" depart="1436.58" type="ped_pedestrian">
        <personTrip from="350484353#10" to="-45897637#0" modes="public"/>
    </person>
    <person id="ped183" depart="1444.47" type="ped_pedestrian">
        <personTrip from="988993433" to="44348045#2" modes="public"/>
    </person>
    <person id="ped184" depart="1452.36" type="ped_pedestrian">
        <personTrip from="47528911#1" to="1003895740" modes="public"/>
    </person>
    <person id="ped185" depart="1460.26" type="ped_pedestrian">
        <personTrip from="48114472#1" to="114899975#1" modes="public"/>
    </person>
    <person id="ped186" depart="1468.15" type="ped_pedestrian">
        <personTrip from="999006586#0" to="-310292425#1" modes="public"/>
    </person>
    <person id="ped187" depart="1476.04" type="ped_pedestrian">
        <personTrip from="-46380838#1" to="-46380862#1" modes="public"/>
    </person>
    <person id="ped188" depart="1483.94" type="ped_pedestrian">
        <personTrip from="771229151#1" to="45606689#1" modes="public"/>
    </person>
    <person id="ped189" depart="1491.83" type="ped_pedestrian">
        <personTrip from="28664120#1" to="1121990961#0" modes="public"/>
    </person>
    <person id="ped190" depart="1499.72" type="ped_pedestrian">
        <personTrip from="988996008#1" to="45606689#6" modes="public"/>
    </person>
    <person id="ped191" depart="1507.62" type="ped_pedestrian">
        <personTrip from="-725249377#3" to="-988580230#2" modes="public"/>
    </person>
    <person id="ped192" depart="1515.51" type="ped_pedestrian">