<?xml version="1.0" encoding="UTF-8"?>

<!-- generated on 2026-03-11 17:21:12.701039 by Eclipse SUMO osmWebWizard.py v1_26_0+0000-fa7df22d7f1
<configuration>
    <net-file value="C:\Users\samle\AppData\Local\Programs\Microsoft VS Code\2026-03-11-17-20-46\osm.net.xml.gz"/>
    <additional-files value="C:\Users\samle\AppData\Local\Programs\Microsoft VS Code\2026-03-11-17-20-46\osm_stops.add.xml,C:\Users\samle\AppData\Local\Programs\Microsoft VS Code\2026-03-11-17-20-46\osm_pt.rou.xml"/>
    <output-trip-file value="C:\Users\samle\AppData\Local\Programs\Microsoft VS Code\2026-03-11-17-20-46\osm.pedestrian.trips.xml"/>
    <route-file value="C:\Users\samle\AppData\Local\Programs\Microsoft VS Code\2026-03-11-17-20-46\osm.pedestrian.rou.xml"/>
    <persontrips value="True"/>
    <persontrip.walk-opposite-factor value="0.8"/>
    <prefix value="ped"/>
    <trip-attributes value="modes=&quot;public&quot;"/>
    <vehicle-class value="pedestrian"/>
    <fringe-factor value="1"/>
    <seed value="45"/>
    <insertion-density value="10.0"/>
    <duarouter-weights.tls-penalty value="20"/>
</configuration>
-->

<!-- generated on 2026-03-11T17:21:12.325141+10:00 by Eclipse SUMO duarouter 1.26.0
<duarouterConfiguration xmlns:xsi="http://www.w3.org/2001/XMLSchema-instance" xsi:noNamespaceSchemaLocation="http://sumo.dlr.de/xsd/duarouterConfiguration.xsd">

    <input>
        <net-file value="C:\Users\samle\AppData\Local\Programs\Microsoft VS Code\2026-03-11-17-20-46\osm.net.xml.gz"/>
        <additional-files value="C:\Users\samle\AppData\Local\Programs\Microsoft VS Code\2026-03-11-17-20-46\osm_stops.add.xml,C:\Users\samle\AppData\Local\Programs\Microsoft VS Code\2026-03-11-17-20-46\osm_pt.rou.xml"/>
        <route-files value="C:\Users\samle\AppData\Local\Programs\Microsoft VS Code\2026-03-11-17-20-46\osm.pedestrian.trips.xml"/>
    </input>

    <output>
        <output-file value="C:\Users\samle\AppData\Local\Programs\Microsoft VS Code\2026-03-11-17-20-46\osm.pedestrian.rou.xml"/>
        <alternatives-output value="NUL"/>
    </output>

    <processing>
        <weights.tls-penalty value="20"/>
        <persontrip.walk-opposite-factor value="0.8"/>
    </processing>

    <time>
        <begin value="0.0"/>
        <end value="3600.0"/>
    </time>

    <report>
        <no-warnings value="true"/>
        <ignore-errors value="true"/>
        <no-step-log value="true"/>
    </report>

</duarouterConfiguration>
-->

<routes xmlns:xsi="http://www.w3.org/2001/XMLSchema-instance" xsi:noNamespaceSchemaLocation="http://sumo.dlr.de/xsd/routes_file.xsd">
    <vType id="ped_pedestrian" vClass="pedestrian"/>
    <person id="ped0" type="ped_pedestrian" depart="0.00">
        <walk edges="1013647803#2 999001659 1004615769#2 1004615769#3 52135911#1 1007907996 310292427#0 310292427#1 310292427#2 310292427#4 310292427#5 1460018425 809933535#1 809933535#0 1460018423#1 1460018423#0 1460018422#1" busStop="925369830"/> <!-- Monash University (Bay L) -->
        <ride busStop="8347277150" intended="pt_bus_703:1.0" depart="570.00"/> <!-- Monash University -->
        <walk edges="333727835#5 333727835#6"/>
    </person>
    <person id="ped1" type="ped_pedestrian" depart="7.89">
        <walk edges="-35177165#4 -35177165#3 988782365#6 988782365#5 1037064069 1037064068#0 1037064067#1 52135872#1 52135872#0 46380895#1 10670084#0 114899978#0"/>
    </person>
    <person id="ped2" type="ped_pedestrian" depart="15.79">
        <walk edges="-310292427#6 -310292427#5 -310292427#4 -310292427#2 -310292427#1 -310292427#0 -1007907997#6 -1007907997#4 -1007907997#2"/>
    </person>
    <person id="ped3" type="ped_pedestrian" depart="23.68">
        <walk edges="1037064067#1 1037064067#0 45606689#0 45606689#1 45606689#2 45606689#3 1003394068 1003394067#1 45606689#6 45606689#7 45606689#8 988993435 45606691#2 996576399#0 996576399#1 996576400 1007907997#1 1007907997#2 310292425#1 310292425#2 55880948#1 55880943 310292425#4 996570115#6 996570115#7 996570115#8 479018891#3 479018893 330739332#0 993036865#0 993036859#5 535392652 993036860#1 1003898199#0 48114472#3 1003895726#1 1003895726#0 125293742#2 125293742#3 1121990961#1 48114471#2 48114471#1 48114471#0 1121990958#8 1121990958#7 1121990958#6 -46129097#1"/>
    </person>
    <person id="ped4" type="ped_pedestrian" depart="31.57">
        <walk edges="10801858#9 10801858#8 10801858#7 10801858#6 10801858#5 10801858#4 28595668#0 28595668#1 28595668#2 28595668#3 45984549#4 45984550#0 45984550#1 45984551#2 45984551#1 45984551#0 996240761#6 -996570115#9 -996570115#8 -996570115#7 -996570115#6 -996570115#5 996225595#1 996225595#2 -996570115#1 -996570115#0 310292427#0 996576396#1 996576396#0 45606689#18 672426744#3"/>
    </person>
    <person id="ped5" type="ped_pedestrian" depart="39.47">
        <walk edges="-116895895#3 794624970 -116895895#0 996831830#0 996831830#1 401146000#5 401146000#4 401146000#3 401146000#2 401146000#1 401146000#0 415775176#10 415775176#9 415775176#8 415775176#7 415775176#6 415775176#5 415775176#4 415775176#3 415775176#2 415775176#1 415775176#0 1121990961#6 1121990961#5 1121990961#4 1121990961#3 1121990961#2 1121990961#1 1121990961#0 988996011#1 1121990957#0 1121990957#1 988996013#0 1004800641#1 1004800640 46129118#1"/>
    </person>
    <person id="ped6" type="ped_pedestrian" depart="47.36">
        <walk edges="-46380842#1 350484353#1 350484353#2 350484353#3 350484353#4 985016790#0 985016790#1 985016790#2 985016790#3 985091885#6 993031102#2 985091885#9 985016781#2 985016785#2"/>
    </person>
    <person id="ped7" type="ped_pedestrian" depart="55.25">
        <walk edges="668801471#3 560852257#0 560852257#1 560852257#2 560852257#3 560852257#4 560852257#5 560852257#6 560852257#7 560852257#9 996240761#7 996240761#6 996240761#5 996240761#4 996240761#3 28595682#3 28595682#2 28664119#0 28664119#1 1115398927 10801745#1 63908747 998999061#0 310292424 10801654#1 10801654#2 997106308#1 999006591 999006590 28533357#1 1000766732"/>
    </person>
    <person id="ped8" type="ped_pedestrian" depart="63.15">
        <walk edges="988996012 -668801471#3 -668801471#2 -668801471#1 -668801471#0 1460051656#1 1460051657 -44348040#0 44348040#1 1460051658 1460051659 -1209622245#1 -1209622245#0 -1460051671 1460051670 1460051660#0 55891715#1"/>
    </person>
    <person id="ped9" type="ped_pedestrian" depart="71.04">
        <walk edges="52135910#0 996570115#0 996570115#1 996225595#2 996225595#1 996570115#5 996570115#6 996570115#7 996570115#8 996570115#9"/>
    </person>
    <person id="ped10" type="ped_pedestrian" depart="78.93">
        <walk edges="-794624970 -116895895#0 996831830#0 996831830#1 401146000#5 401146000#4 401146000#3 401146000#2 401146000#1 403774582#6 403774582#5 403774582#4 403774582#3 403774582#2 403774582#1 403774582#0 1004615767#2 1004615767#1"/>
    </person>
    <person id="ped11" type="ped_pedestrian" depart="86.83">
        <walk edges="809945761#0 560854548#0 -114900092#1 988996001#3 988996001#4 45897886#1 -310292427#4 725249377#9 1007909778#0 14540342#1 14540342#0 328908469#0 328908469#1 560852257#7 560852257#9 996240761#7 996240761#6 996240761#5 996240761#4 996240761#3 996240761#2 996240761#1 996240761#0 4577072#0 4577072#1 1004615767#0 1004615767#1 1004615767#2 998107627#4"/>
    </person>
    <person id="ped12" type="ped_pedestrian" depart="94.72">
        <walk edges="-424926868#1 988996001#1 988996001#2 988996001#3 988996001#4 45897886#1 -310292427#4 725249377#9 1007909778#0 14540342#1 14540342#0 328908469#0 328908469#1 560852257#7 560852257#9 996240761#7 996240761#6 45984551#0 45984551#1 45984551#2 45984550#1 45984550#0 45984549#4 28595668#3 28595668#2 28595668#1 28595668#0 10801858#4 10801858#5 10801858#6 10801858#7 10801858#8 10801858#9 10801858#10 996237865#1 996237865#0 46129086#4 -36667189#1"/>
    </person>
    <person id="ped13" type="ped_pedestrian" depart="102.61">
        <walk edges="725249383#1 -560852257#0 -668801471#2 -668801471#1 -668801471#0 1460051656#1 1460051657 -44348040#0 44348040#1 1460051658 1460051659 44348045#0 1360476883#0 1360476883#1 44348045#4 1117069533#2 1117069533#1"/>
    </person>
    <person id="ped14" type="ped_pedestrian" depart="110.51">
        <walk edges="14540342#4 14540342#3 14540342#2 14540342#1 14540342#0 328908469#0 328908469#1 560852257#7 560852257#9 996240761#7 996570115#10 45984552#2 45984552#1 995547619 993036872#0"/>
    </person>
    <person id="ped15" type="ped_pedestrian" depart="118.40">
        <walk edges="725249377#11 14540342#2 14540342#1 14540342#0 328908469#0 328908469#1 560852257#7 560852257#9 996240761#7 996240761#6 996240761#5 996240761#4 996240761#3 996240761#2 996240761#1 10801858#1 10801858#2 402545591#3 402545591#2 402545591#1 402545591#0 402545592#7 402545592#6 402545592#5 402545590 403774582#6 401146000#1 401146000#2 401146000#3 401146000#4 401146000#5 46410633#5 46410633#4 46410633#3 47567647#2 47567647#1"/>
    </person>
    <person id="ped16" type="ped_pedestrian" depart="126.29">
        <walk edges="993036862#2 993036862#1 993036862#0 993036861 560852257#6 560852257#7 560852257#9 996240761#7 996240761#6 996240761#5 996240761#4 996240761#3 996240761#2 996240761#1 10801858#1 10801858#2 402545591#3 402545591#2 402545591#1 402545591#0 402545592#7 402545592#6 402545592#5 402545590 403774582#6 401146000#1 401146000#2 401146000#3 401146000#4 401146000#5 -996831830#1 -996831830#0 116895895#0 -794624970 116895895#4 446272709 605959216 605959217"/>
    </person>
    <person id="ped17" type="ped_pedestrian" depart="134.19">
        <walk edges="985091885#6 985016790#3 985016790#2 985016790#1 985016790#0 350484353#4 350484353#3 350484353#2 350484353#1 350484353#0 47567647#5 47567647#4 47567647#3 46410633#2 46410633#1"/>
    </person>
    <person id="ped18" type="ped_pedestrian" depart="142.08">
        <walk edges="46129071#0 48114469#2 997113371 -116895895#1 -116895895#0 996831830#0 996831830#1 401146000#5 401146000#4 401146000#3 401146000#2 401146000#1 403774582#6 402545590 402545592#5 402545592#6 402545592#7 402545591#0 402545591#1 402545591#2 402545591#3 10801858#2 10801858#1 10801858#0 28664119#0 28595682#1 28595682#0 28595682#9 28595682#8 28595682#7 11333660#3 11333660#2 31733089#1 31733089#0 996576393 -1004615769#2 -1004615769#1 -1004615769#0 -1004615770 45606689#14 52135875#0 996576394#0 45897636#3 491516482#1 491516482#2 -1004615761#1 1004615763 -261979202#0"/>
    </person>
    <person id="ped19" type="ped_pedestrian" depart="149.97">
        <walk edges="996240761#3 996240761#4 996240761#5 996240761#6"/>
    </person>
    <person id="ped20" type="ped_pedestrian" depart="157.87">
        <walk edges="-1037064064#2 -1037064064#1 -1037064064#0 1004615763 261979202#0 23693592#2 1163240743#1 1037064068#0 1037064069 988782365#5 988782365#6 35177165#3 35177165#4"/>
    </person>
    <person id="ped21" type="ped_pedestrian" depart="165.76">
        <walk edges="46129115#1 1121990961#3 1121990961#4 1003895728 1000761236 800627454#2 800627457#2 800627457#1 800627457#0 -996570115#15 -996570115#14 -996570115#13 -996570115#12 -996570115#11 -996570115#10 -996570115#9 -996570115#8 -996570115#7 -996570115#6 993039072 55880943 55880948#1 -310292425#2 -310292425#1 -1007907997#2 -1007907997#1 996576400 996576399#1 996576399#0 -45606691#2 988993435 45606689#8 988993433 988993432 10670084#1"/>
    </person>
    <person id="ped22" type="ped_pedestrian" depart="173.65">
        <walk edges="1460088175#1 1121990958#7 1121990958#8 48114471#0 48114471#1 48114471#2 1121990961#1 125293742#3 125293742#2 1003895726#0 1003895726#1 48114472#3 1003898199#0 993036860#1 535392652 993036859#5 993036865#0 330739332#0 330739332#1 330739332#2 330739332#3 330739332#4 45984548#3 996225595#3 55880942#1 55880950 55880947#0 996576393 -1004615769#2 -1004615769#1 -1004615769#0 -1004615768 45606689#12 45606689#11 45606689#10 988993430"/>
    </person>
    <person id="ped23" type="ped_pedestrian" depart="181.55">
        <walk edges="-47528897#2 -47528897#1 985091885#10 985016785#1 985016786#2 1147258797 350484353#10 996237862#1 1272942443#1 1272942443#2 1272942443#3 1272942443#5 1272942443#6 1272942443#7 1272942443#8 1272942443#9 1272942443#10 996570120#0 996570120#1 995547633#1 28257076 28595682#9"/>
    </person>
    <person id="ped24" type="ped_pedestrian" depart="189.44">
        <walk edges="-35177168#3 52135872#2 1037064067#0 45606689#0 45606689#1 45606689#2 45606689#3 1003394068 1003394067#1 45606689#6 45606689#7 45606689#8 988993435 45606691#2 996576399#0 996576399#1 996576400 1007907997#1 1007907997#2 1007907997#4 55880947#0 55880950 55880942#1 996225595#3 45984548#3 45984548#4 45984548#5 45984547#1 45984547#2 996570122#0 996237870#0 996237870#1 14540342#0"/>
    </person>
    <person id="ped25" type="ped_pedestrian" depart="197.33">
        <walk edges="995547621 993036870 996249851 993036872#0 993036872#1 995547623 996570115#13 996570115#14 996570115#15 800627457#0 800627457#1 800627457#2 800627454#2 1000761236 1003895728 1121990961#4 1121990961#3 1121990961#2 48114471#2 48114471#1 48114471#0 1121990958#8 1121990958#7 1121990958#6 1121990958#5 1121990958#4 46129098#1"/>
    </person>
    <person id="ped26" type="ped_pedestrian" depart="205.23">
        <walk edges="-114900092#6 1011594504#1 1011594504#2 1330868968 1330832382 -310292422#0 -310292427#7 -310292427#6 -310292427#5 -310292427#4 725249377#9 1007909778#0 14540342#1 14540342#0 328908469#0 328908469#1 -560852257#6 993036861 993036862#0 993036862#1 993036862#2 1003898199#1 1003898199#0 48114472#3 48114472#2 48114472#1 993036858"/>
    </person>
    <person id="ped27" type="ped_pedestrian" depart="213.12">
        <walk edges="47528913#1 47569243#2 47569243#1 1002563112#2 985091885#5 985016790#3 985016790#2 985016790#1 985016790#0 350484353#4 350484353#3 350484353#2 350484353#1 350484353#0 1460088177#4 1460088177#3 988580234 988580232 988580230#0 988580230#1 988580230#2 310012465#1 310012465#0 402545592#3 402545592#2"/>
    </person>
    <person id="ped28" type="ped_pedestrian" depart="221.01">
        <walk edges="-985091885#5 985016790#3 985016790#2 985016790#1 985016790#0 350484353#5 350484353#6 350484353#7 1001027014 1001027015 1000770915 1001027013 1001027012 1001027009 1001027008 1001027007 1001027006 1272942443#1 1272942443#2 1272942443#3 1272942443#5 1272942443#6 1272942443#7 1272942443#8 1272942443#9 1272942443#10 996587081#1 1007907997#0 1007907997#1 1007907997#2 310292425#1 310292425#2 55880948#1 55880943 310292425#4 996570115#6 996570115#7 996570115#8 479018891#3 479018893 330739332#0 993036865#0 993036859#5 535392652 993036860#1 1003898199#0 48114472#3 48114472#2 48114472#1 48114472#0 1331152587 1121990957#0 1121990957#1 988996013#0 1004800641#1 1004800641#0 46129113#1"/>
    </person>
    <person id="ped29" type="ped_pedestrian" depart="228.91">
        <walk edges="-45897807 -310292427#6 -310292427#5 -310292427#4 725249377#9 1007909778#0 14540342#1 14540342#0 328908469#0 328908469#1 -560852257#6 993036861 993036862#0 993036862#1 993036862#2 1003898199#1 1003898199#0 1001334186 1001334187 479018894 800627455 1000755820 800627454#1 1000761236 1003895728 1121990961#4 1121990961#3 46129115#1 46129116"/>
    </person>
    <person id="ped30" type="ped_pedestrian" depart="236.80">
        <walk edges="45984547#2 999007930 999007931 999007928#0 999007928#1 14540342#1 14540342#2 14540342#3 14540342#4 -668801471#0 1460051656#1 1460051657 -44348040#0 44348040#1 1460051658 1460051659 -1209622245#1 1209622245#0"/>
    </person>
    <person id="ped31" type="ped_pedestrian" depart="244.69">
        <walk edges="1020218153#2 1020218152 28257081#0"/>
    </person>
    <person id="ped32" type="ped_pedestrian" depart="252.59">
        <walk edges="1121990961#4 1003895728 1000761236 800627454#2 800627457#2 800627457#1 800627457#0 -996570115#15 -996570115#14 -996570115#13 995547623 993036872#1 993036872#0 996249851 993036871 45984550#1 45984550#0 45984549#3 45984549#2 45984549#1 28595682#4 996240761#2 996240761#1 996240761#0 4577072#0 4577072#1 1004615767#0 1004615767#1 1004615767#2 403774582#0 403774582#1 998107637 998107636 998107635#1"/>
    </person>
    <person id="ped33" type="ped_pedestrian" depart="260.48">
        <walk edges="46410633#4 46410633#5 401146000#5 401146000#4 401146000#3 401146000#2 401146000#1 403774582#6 402545590 402545592#5 402545592#6 402545592#7 402545591#0 402545591#1 402545591#2 402545591#3"/>
    </person>
    <person id="ped34" type="ped_pedestrian" depart="268.37">
        <walk edges="47567647#5 350484353#0 350484353#1 350484353#2 350484353#3 350484353#4"/>
    </person>
    <person id="ped35" type="ped_pedestrian" depart="276.26">
        <walk edges="998107634#1 998107634#0 998107627#4 1004615767#2 1004615767#1 1004615767#0 4577072#1 4577072#0 996240761#0 996240761#1 996240761#2 28595682#4 45984549#1 45984549#2 45984549#3 45984550#0 45984550#1 993036871 996249851 993036872#0 993036872#1 995547623 996570115#13 996570115#14 996570115#15 800627457#0 800627457#1 800627457#2 800627454#2 1000761236 1003895728 1121990961#4 1121990961#3 1121990961#2 48114471#2 48114471#1 48114471#0 1121990958#8 1121990958#7 988996005#0"/>
    </person>
    <person id="ped36" type="ped_pedestrian" depart="284.16">
        <walk edges="-44348040#1 -44348040#0 -1460051657 -1460051656#1 52631734#4 14540342#4 14540342#3" busStop="5737782109"/> <!-- Monash University (Bay K) -->
        <walk edges="809933534#1" busStop="925369830"/> <!-- Monash University (Bay L) -->
        <ride busStop="8347277150" intended="pt_bus_703:1.0" depart="570.00"/> <!-- Monash University -->
        <walk edges="-46129103#2 -46129097#2 46129097#1"/>
    </person>
    <person id="ped37" type="ped_pedestrian" depart="292.05">
        <walk edges="-310292416#0 -46410634#0 47567647#2 47567647#3 47567647#4 47567647#5 1460088177#4 46380826#1 46380812#0 46380818#0 -46380818#1"/>
    </person>
    <person id="ped38" type="ped_pedestrian" depart="299.94">
        <walk edges="1460018422#0 1460018424 1007909777#1 1007909778#1 1007909778#0 14540342#1 14540342#0 328908469#0 328908469#1 560852257#7 560852257#9 996240761#7 996240761#6 996240761#5 996240761#4 996240761#3 996240761#2 996240761#1 10801858#1 10801858#2 402545591#3 402545591#2 402545591#1 402545591#0 402545592#7 402545592#6 402545592#5 402545590 403774582#6 401146000#1 401146000#2 401146000#3 46129086#7 46129086#6"/>
    </person>
    <person id="ped39" type="ped_pedestrian" depart="307.84">
        <walk edges="-35177166#0 -35177165#3 988782365#6 988782365#5 1037064069 1037064068#0 1037064067#1 1037064067#0 45606689#0 45606689#1 45606689#2 45606689#3 1003394068 1003394067#1 45606689#6 45606689#7 45606689#8 45606689#9 45606689#10 45606689#11 52135874"/>
    </person>
    <person id="ped40" type="ped_pedestrian" depart="315.73">
        <walk edges="771229148#3 771229148#2 771229148#1 988784682 988784681 1004615766#4 28257081#0 1020218152 1020218153#1 1020218153#0 28664120#1 4577072#0 996240761#0 10801858#1 10801858#2 10801858#3 28595668#0 28595668#1 28595668#2"/>
    </person>
    <person id="ped41" type="ped_pedestrian" depart="323.62">
        <walk edges="988993428#0 45606689#5 1003394067#1 1003394067#0 114899978#2 114899978#3 988993436 11527061#2 11527061#3 11527061#5 10801654#6 1444391074#0"/>
    </person>
    <person id="ped42" type="ped_pedestrian" depart="331.52">
        <walk edges="1460042481#1 1460042481#0 1037064068#1 1037064068#0 1037064067#1 1037064067#0 45606689#0 45606689#1 45606689#2 45606689#3 1003394068 1003394067#1 45606689#6 45606689#7 45606689#8 988993435 45606691#2 996576399#0 996576399#1 996576400 1007907997#1 1007907997#2 1007907997#4 55880947#0 55880950 55880942#1 996225595#3 45984548#3 45984548#4 45984548#5 45984547#1 45984547#2 999007930 999007931 999007928#0 999007928#1 14540342#1 14540342#2 14540342#3 14540342#4 -668801471#0 1460051656#1 1460051657 -44348040#0 44348040#1 1460051658 1460051659 44348045#0 1360476883#0"/>
    </person>
    <person id="ped43" type="ped_pedestrian" depart="339.41">
        <walk edges="55556411#0 46411005#1 46411005#0 1007907997#2 310292425#1 310292425#2 55880948#1 55880943 310292425#4 996570115#6 996570115#7 996570115#8 996570115#9 996240761#6 45984551#0 45984551#1 45984551#2 45984550#1 995547622"/>
    </person>
    <person id="ped44" type="ped_pedestrian" depart="347.30">
        <walk edges="988993430 45606689#9 988993435 45606691#2 996576399#0 996576399#1 996576400 11333660#0 11333660#1 11333660#2 11333660#3 28595682#7 28595682#8 28595682#9 28595682#0 28595682#1 28664119#0 10801858#0 996240761#0 493547203#0 493547203#1"/>
    </person>
    <person id="ped45" type="ped_pedestrian" depart="355.20">
        <walk edges="1003394068 1003394067#1 45606689#6 45606689#7 45606689#8 988993435 45606691#2 996576399#0 996576399#1 996576400 1007907997#1 1007907997#2 310292425#1 310292425#2 55880948#1 55880943 310292425#4 996570115#6 996570115#7 996570115#8 479018891#3 479018893 330739332#0 993036865#0 993036859#5 535392652 993036860#1 1003898199#0 48114472#3 1003895726#1 1003895726#0 125293742#2"/>
    </person>
    <person id="ped46" type="ped_pedestrian" depart="363.09">
        <walk edges="995547626#1 993036875 995547622 45984550#0 45984549#3 45984549#2 45984549#1 28595682#4 28595682#3 28595682#2 28664119#0 28664119#1 1115398927 10801745#1 63908747 998999061#0 310292424 10801654#1 10801654#2 997106308#1 999006591 999006590 28533357#1 1000766732 988784684#1 988784684#2 -1272942443#1 1001027006 1001027007 1001027008 1001027009 1001027012 1001027013 1000770915"/>
    </person>
    <person id="ped47" type="ped_pedestrian" depart="370.98">
        <walk edges="402545592#2 402545592#3 402545592#4 402545590 403774582#6 401146000#1 401146000#2 401146000#3 401146000#4 401146000#5 46410633#5 46410633#4 46410633#3 47567647#2 46410634#0 54571057"/>
    </person>
    <person id="ped48" type="ped_pedestrian" depart="378.88">
        <walk edges="996570115#10 996240761#6 996240761#5 996240761#4 996240761#3 28595682#3 28595682#2 28664119#0 28664119#1 1115398927 10801745#1 63908747 998999061#0 310292424 10801654#1 10801654#2 997106308#1 999006591 999006590 28533357#1 1000766732 988784684#1 988784684#2 -1272942443#1 1001027006 1001027007 1001027008 1001027009 1001027012 1001027013 1000770915 1001027015 1001027014 350484353#7 350484353#6 350484353#5 985016790#0 985016790#1 985016790#2 985016790#3 -985091885#5 47528894#1"/>
    </person>
    <person id="ped49" type="ped_pedestrian" depart="386.77">
        <walk edges="45984552#2 45984552#1 45984552#0 45984551#1 45984551#0 996240761#5 996240761#4 996240761#3 28595682#3 28595682#2 28664119#0 28664119#1 1115398927 10801745#1 63908747 998999061#0 310292424 10801654#1 10801654#2 997106308#1 999006591 999006590 28533357#1 1000766732 988784684#1 988784684#2 -1272942443#1 -1272942443#0 350484353#10 1147258797 985016786#0 985016787#1 985016789#3 238187954#4 -238187954#5"/>
    </person>
    <person id="ped50" type="ped_pedestrian" depart="394.66">
        <walk edges="996240761#2 996240761#1 10801858#0 28664119#1 1115398927 10801745#1 63908747 998999061#0 310292424 10801654#1 10801654#2 997106308#1 999006591 999006590 28533357#1 1000766732 988784684#1 988784684#2 -1272942443#1 1001027006 1001027007 1001027008 1001027009 1001027012 1001027013 1000770915 1001027015 1001027014 350484353#7 350484353#6 350484353#5 985016790#0 985016790#1 985016790#2 985016790#3 993031102#0 1002563112#0 1002563112#1"/>
    </person>
    <person id="ped51" type="ped_pedestrian" depart="402.56">
        <walk edges="46129113#0 46129118#1 1004800640 1004800641#1 988996013#0 1121990957#1 1121990957#0 1331152587 48114472#0 48114472#1 48114472#2 48114472#3 1003898199#0 993036860#1 535392652 993036859#5 993036865#0 330739332#0 479018893 479018891#3 -996570115#8 -996570115#7 -996570115#6 993039072 55880943 55880948#1 -310292425#2 -310292425#1 -1007907997#2 -1007907997#1 -1007907997#0 -996587081#1 -1272942443#10 -1272942443#9 -1272942443#8 1272942443#7"/>
    </person>
    <person id="ped52" type="ped_pedestrian" depart="410.45">
        <walk edges="47528897#1 -985091885#9 993031102#2 -985091885#6 985016790#3 985016790#2 985016790#1 985016790#0 350484353#4 350484353#3 350484353#2 350484353#1 350484353#0 1460088177#4 1460088177#3 988580234 988580232 988580230#0"/>
    </person>
    <person id="ped53" type="ped_pedestrian" depart="418.34">
        <walk edges="997106305 997106304 10801858#6 10801858#7 10801858#8 10801858#9 10801858#10 415775176#8 415775176#9 415775176#10 401146000#0 401146000#1 1460088177#0 1460088177#1 1460088177#2 1460088177#3 1460088177#4 350484353#0 350484353#1 350484353#2 350484353#3 350484353#4 985016790#0 985016790#1"/>
    </person>
    <person id="ped54" type="ped_pedestrian" depart="426.24">
        <walk edges="988993435 45606689#8 45606689#7 45606689#6 1003394067#1 1003394068 45606689#3 45606689#2 45606689#1 45606689#0 1037064067#0 1037064067#1 1037064068#0 1037064068#1 1460042481#0 1460042481#1 1444391069#0 1444391070"/>
    </person>
    <person id="ped55" type="ped_pedestrian" depart="434.13">
        <walk edges="-1470433045 93686037#2 -424926868#1 988996001#1 988996001#2 988996001#3 988996001#4 45897886#1 -310292427#4 725249377#9 1007909778#0 14540342#1 14540342#0 328908469#0 328908469#1 560852257#7 993036865#0 993036865#1 535392653#0 993036859#1 -93678384#0 45984557#1 800627457#1 800627457#2"/>
    </person>
    <person id="ped56" type="ped_pedestrian" depart="442.02">
        <walk edges="999442795 114899978#4 988993436 11527061#2 11527061#3 11527061#5 10801654#6 10801654#5 997106308#3 10801654#2 10801654#1 10801654#0 1004615766#4 1004615766#3 1004615766#2 1004615766#1 1004615766#0 1004615767#0 1004615767#1 1004615767#2 403774582#0 403774582#1 403774582#2 403774582#3 403774582#4 310012465#1 -988580230#2 -988580230#1 -298236187#1 298236187#0"/>
    </person>
    <person id="ped57" type="ped_pedestrian" depart="449.92">
        <walk edges="996237862#1 1272942443#1 1272942443#2 1272942443#3 1272942443#5 1272942443#6 771229151#0 997106309#0 997106309#1 -11527061#3 -11527061#2 988993436 114899978#4 999442795 999442791#0 45606691#0 45606691#1 988993434#1 45606689#12 45606689#13 45606689#14 52135875#0 996576394#0 996576394#1 -45897637#0 45897636#1"/>
    </person>
    <person id="ped58" type="ped_pedestrian" depart="457.81">
        <walk edges="14540342#1 1007909778#0 -725249377#9 310292427#4 45897886#1 988996001#4 988993426#1"/>
    </person>
    <person id="ped59" type="ped_pedestrian" depart="465.70">
        <walk edges="-298236180#1 773028723 310012465#1 403774582#4 403774582#3 403774582#2 403774582#1 403774582#0 1004615767#2 1004615767#1 1004615767#0 4577072#1 4577072#0 996240761#0 996240761#1 996240761#2 996240761#3 996240761#4 996240761#5 996240761#6 996240761#7 -560852257#9 -560852257#7 328908469#1 328908469#0 14540342#0 14540342#1 14540342#2 14540342#3 14540342#4 -668801471#0 1460051656#1 1460051657 -44348040#0 44348040#1 1460051658 1460051659 1209622245#1"/>
    </person>
    <person id="ped60" type="ped_pedestrian" depart="473.60">
        <walk edges="52135874 45606689#11 45606689#10 45606689#9 45606689#8 45606689#7 45606689#6 1003394067#1 1003394068 45606689#3 45606689#2 45606689#1 45606689#0 1037064067#0 1037064067#1 1037064068#0 1037064069 988782365#5 988782365#6 35177165#3 -35177165#4"/>
    </person>
    <person id="ped61" type="ped_pedestrian" depart="481.49">
        <walk edges="1001027007 1001027006 1272942443#1 1272942443#2 1272942443#3 1272942443#5 1272942443#6 1272942443#7 1272942443#8 1272942443#9 1272942443#10 996587081#1 1007907997#0 1007907997#1 1007907997#2 1007907997#4 55880947#0 55880950 55880942#1 996225595#3 45984548#3 45984548#4 45984548#5 45984547#1 45984547#2 999007930 999007931 999007928#0 999007928#1 14540342#1 14540342#2 14540342#3 14540342#4 -668801471#0 1460051656#1 1460051657 -44348040#0 44348040#1 1460051658 1460051659"/>
    </person>
    <person id="ped62" type="ped_pedestrian" depart="489.38">
        <walk edges="672426744#3 45606689#19 45606689#18 996576396#0 996576396#1 -310292427#0 996570115#0 996570115#1 996225595#2 996225595#1 996570115#5 996570115#6 996570115#7 479018890#2 479018890#1"/>
    </person>
    <person id="ped63" type="ped_pedestrian" depart="497.28">
        <walk edges="1460051661#1 1460051661#0 1460051660#2 1460051660#1 1460051660#0 1460051670 1460051671 1209622245#0 1209622245#1 -1460051659 1460051658 -44348040#1 -44348040#0 -1460051657 -1460051656#1 52631734#4 14540342#4 14540342#3 14540342#2 14540342#1 14540342#0 328908469#0 328908469#1 560852257#7 560852257#9 996240761#7 996240761#6 996240761#5 996240761#4 45984549#0"/>
    </person>
    <person id="ped64" type="ped_pedestrian" depart="505.17">
        <walk edges="-45897636#3 996576394#0 52135875#0 45606689#14 1004615770 1004615769#0 1004615769#1 1004615769#2 996576393 31733089#0 31733089#1 11333660#2 11333660#3 28595682#7 28595682#8 28595682#9 28595682#0 28595682#1 28664119#0 10801858#0 10801858#1 10801858#2 402545591#3 402545591#2 402545591#1 402545591#0 402545592#7 402545592#6 402545592#5 402545590 403774582#6 401146000#1 401146000#2 401146000#3 401146000#4 401146000#5 46410633#5 46410633#4 46410633#3 47567647#2 47567647#1 47567647#0"/>
    </person>
    <person id="ped65" type="ped_pedestrian" depart="513.06">
        <walk edges="985016787#3 985016787#2 985016787#1 985016786#0 1147258797 350484353#10 996237862#1 1272942443#1 988784684#2 988784684#1 1000766732 28533357#1 999006590 988784683 771229148#2 771229148#1 988784682 999006592"/>
    </person>
    <person id="ped66" type="ped_pedestrian" depart="520.96">
        <walk edges="560852257#7 560852257#9 996240761#7 996240761#6 996240761#5 996240761#4 996240761#3 996240761#2 996240761#1 996240761#0 4577072#0 4577072#1 1004615767#0 1004615767#1 1004615767#2 998107627#4 998107634#0 998107639#0"/>
    </person>
    <person id="ped67" type="ped_pedestrian" depart="528.85">