<?xml version="1.0" encoding="UTF-8"?>

<!-- generated on 2026-03-11 17:21:08.720355 by Eclipse SUMO osmWebWizard.py v1_26_0+0000-fa7df22d7f1
<configuration>
    <net-file value="C:\Users\samle\AppData\Local\Programs\Microsoft VS Code\2026-03-11-17-20-46\osm.net.xml.gz"/>
    <output-trip-file value="C:\Users\samle\AppData\Local\Programs\Microsoft VS Code\2026-03-11-17-20-46\osm.passenger.trips.xml"/>
    <route-file value="C:\Users\samle\AppData\Local\Programs\Microsoft VS Code\2026-03-11-17-20-46\osm.passenger.rou.xml"/>
    <prefix value="veh"/>
    <trip-attributes value="departLane=&quot;best&quot;"/>
    <fringe-start-attributes value="departSpeed=&quot;max&quot;"/>
    <vehicle-class value="passenger"/>
    <lanes value="True"/>
    <fringe-factor value="5"/>
    <allow-fringe.min-length value="1000.0"/>
    <edge-permission value="passenger"/>
    <via-edge-types value="highway.motorway,highway.motorway_link,highway.trunk_link,highway.primary_link,highway.secondary_link,highway.tertiary_link"/>
    <seed value="44"/>
    <min-distance value="300.0"/>
    <min-distance.fringe value="10.0"/>
    <remove-loops value="True"/>
    <insertion-density value="12.0"/>
</configuration>
-->

<routes xmlns:xsi="http://www.w3.org/2001/XMLSchema-instance" xsi:noNamespaceSchemaLocation="http://sumo.dlr.de/xsd/routes_file.xsd">
    <vType id="veh_passenger" vClass="passenger"/>
    <trip id="veh0" depart="0.00" from="1209653403#0" to="25757262#4" departLane="best" type="veh_passenger"/>
    <trip id="veh1" depart="14.33" from="-73530943#0" to="-1209653401" departLane="best" type="veh_passenger"/>
    <trip id="veh2" depart="28.65" from="988996003" to="4909721" departLane="best" type="veh_passenger"/>
    <trip id="veh3" depart="42.98" from="-172916436#1" to="776576196" departLane="best" type="veh_passenger"/>
    <trip id="veh4" depart="57.31" from="-1470433046#3" to="-45897672#2" departLane="best" type="veh_passenger"/>
    <trip id="veh5" depart="71.64" from="24801549#3" to="985461729#0" departLane="best" type="veh_passenger"/>
    <trip id="veh6" depart="85.96" from="-10670468#4" to="139327109#2" departLane="best" type="veh_passenger" departSpeed="max"/>
    <trip id="veh7" depart="100.29" from="-630680455#0" to="1117069526" departLane="best" type="veh_passenger"/>
    <trip id="veh8" depart="114.62" from="44348023#1" to="73530943#9" departLane="best" type="veh_passenger"/>
    <trip id="veh9" depart="128.94" from="5094896#1" to="45897672#1" departLane="best" type="veh_passenger"/>
    <trip id="veh10" depart="143.27" from="988996004" to="139327109#0" departLane="best" type="veh_passenger"/>
    <trip id="veh11" depart="157.60" from="-630680457#4" to="-47528871#0" departLane="best" type="veh_passenger"/>
    <trip id="veh12" depart="171.92" from="24801549#1" to="-5094887#0" departLane="best" type="veh_passenger"/>
    <trip id="veh13" depart="186.25" from="-5094887#0" to="46129059#3" departLane="best" type="veh_passenger"/>
    <trip id="veh14" depart="200.58" from="5322852" to="45897352#1" departLane="best" type="veh_passenger"/>
    <trip id="veh15" depart="214.91" from="10539447#0" to="46129059#5" departLane="best" type="veh_passenger"/>
    <trip id="veh16" depart="229.23" from="1038136215" to="-10585181#2" departLane="best" type="veh_passenger"/>
    <trip id="veh17" depart="243.56" from="1038136215" to="48485714#1" departLane="best" type="veh_passenger"/>
    <trip id="veh18" depart="257.89" from="10539044#0" to="827546847" departLane="best" type="veh_passenger"/>
    <trip id="veh19" depart="272.21" from="139332152#1" to="784545154" departLane="best" type="veh_passenger"/>
    <trip id="veh20" depart="286.54" from="203086244#2" to="288985250" departLane="best" type="veh_passenger"/>
    <trip id="veh21" depart="300.87" from="-172916436#1" to="10670468#4" departLane="best" type="veh_passenger"/>
    <trip id="veh22" depart="315.19" from="794626555#1" to="47528871#1" departLane="best" type="veh_passenger"/>
    <trip id="veh23" depart="329.52" from="-172916437#0" to="16992996" departLane="best" type="veh_passenger"/>
    <trip id="veh24" depart="343.85" from="4707777#0" to="1117069527#1" departLane="best" type="veh_passenger" departSpeed="max"/>
    <trip id="veh25" depart="358.18" from="-46129059#3" to="794626555#1" departLane="best" type="veh_passenger"/>
    <trip id="veh26" depart="372.50" from="10670468#3" to="1209653409#1" departLane="best" type="veh_passenger"/>
    <trip id="veh27" depart="386.83" from="48485714#0" to="139327109#2" departLane="best" type="veh_passenger"/>
    <trip id="veh28" depart="401.16" from="4577073#3" to="17133664#1" departLane="best" type="veh_passenger"/>
    <trip id="veh29" depart="415.48" from="-725249379" to="4909721" departLane="best" type="veh_passenger" departSpeed="max"/>
    <trip id="veh30" depart="429.81" from="-4577078#4" to="139327109#2" departLane="best" type="veh_passenger"/>
    <trip id="veh31" depart="444.14" from="10585181#7" to="-5094896#1" departLane="best" type="veh_passenger"/>
    <trip id="veh32" depart="458.46" from="10670468#3" to="47528871#1" departLane="best" type="veh_passenger"/>
    <trip id="veh33" depart="472.79" from="5094887#0" to="-10585186" departLane="best" type="veh_passenger"/>
    <trip id="veh34" depart="487.12" from="-10585181#7" to="-4577073#4" departLane="best" type="veh_passenger"/>
    <trip id="veh35" depart="501.45" from="172916438#0" to="784545154" departLane="best" type="veh_passenger" departSpeed="max"/>
    <trip id="veh36" depart="515.77" from="73530943#10" to="776576196" departLane="best" type="veh_passenger"/>
    <trip id="veh37" depart="530.10" from="-73530943#7" to="1117069527#1" departLane="best" type="veh_passenger"/>
    <trip id="veh38" depart="544.43" from="-47528871#1" to="1117069526" departLane="best" type="veh_passenger" departSpeed="max"/>
    <trip id="veh39" depart="558.75" from="-5094887#0" to="17133664#1" departLane="best" type="veh_passenger"/>
    <trip id="veh40" depart="573.08" from="48485713" to="1117069527#1" departLane="best" type="veh_passenger"/>
    <trip id="veh41" depart="587.41" from="-630680457#1" to="776576196" departLane="best" type="veh_passenger"/>
    <trip id="veh42" depart="601.73" from="-5045577#1" to="-1470433046#2" departLane="best" type="veh_passenger"/>
    <trip id="veh43" depart="616.06" from="-10670468#3" to="1117069527#0" departLane="best" type="veh_passenger"/>
    <trip id="veh44" depart="630.39" from="794626555#1" to="16986734#2" departLane="best" type="veh_passenger"/>
    <trip id="veh45" depart="644.72" from="794626555#1" to="-4577073#3" departLane="best" type="veh_passenger"/>
    <trip id="veh46" depart="659.04" from="1470433048" to="139327109#0" departLane="best" type="veh_passenger"/>
    <trip id="veh47" depart="673.37" from="172916437#1" to="776576196" departLane="best" type="veh_passenger"/>
    <trip id="veh48" depart="687.70" from="73530943#0" to="25757262#4" departLane="best" type="veh_passenger"/>
    <trip id="veh49" depart="702.02" from="-10585181#7" to="569766862#0" departLane="best" type="veh_passenger"/>
    <trip id="veh50" depart="716.35" from="25757262#1" to="-47528871#0" departLane="best" type="veh_passenger"/>
    <trip id="veh51" depart="730.68" from="4754396#6" to="68310781#3" departLane="best" type="veh_passenger"/>
    <trip id="veh52" depart="745.00" from="25757262#0" to="44348023#1" departLane="best" type="veh_passenger"/>
    <trip id="veh53" depart="759.33" from="203086244#0" to="4754404#1" departLane="best" type="veh_passenger" departSpeed="max"/>
    <trip id="veh54" depart="773.66" from="1038136215" to="10585181#7" departLane="best" type="veh_passenger"/>
    <trip id="veh55" depart="787.99" from="5045577#1" to="25757262#4" departLane="best" type="veh_passenger"/>
    <trip id="veh56" depart="802.31" from="-172916437#2" to="25757262#0" departLane="best" type="veh_passenger" departSpeed="max"/>
    <trip id="veh57" depart="816.64" from="4577075#1" to="-11294994" departLane="best" type="veh_passenger"/>
    <trip id="veh58" depart="830.97" from="4577075#1" to="139332152#0" departLane="best" type="veh_passenger"/>
    <trip id="veh59" depart="845.29" from="-630680457#0" to="405414870#4" departLane="best" type="veh_passenger"/>
    <trip id="veh60" depart="859.62" from="288985252#1" to="827546847" departLane="best" type="veh_passenger"/>
    <trip id="veh61" depart="873.95" from="10539044#3" to="4577074#2" departLane="best" type="veh_passenger"/>
    <trip id="veh62" depart="888.27" from="139327105" to="10585197#2" departLane="best" type="veh_passenger" departSpeed="max"/>
    <trip id="veh63" depart="902.60" from="-10585197#2" to="-45897352#1" departLane="best" type="veh_passenger" departSpeed="max"/>
    <trip id="veh64" depart="916.93" from="4707777#0" to="10585197#2" departLane="best" type="veh_passenger" departSpeed="max"/>
    <trip id="veh65" depart="931.26" from="569766862#0" to="5045577#2" departLane="best" type="veh_passenger"/>
    <trip id="veh66" depart="945.58" from="-47528871#1" to="784545154" departLane="best" type="veh_passenger" departSpeed="max"/>
    <trip id="veh67" depart="959.91" from="10585181#2" to="784545154" departLane="best" type="veh_passenger"/>
    <trip id="veh68" depart="974.24" from="139332152#3" to="139327109#2" departLane="best" type="veh_passenger"/>
    <trip id="veh69" depart="988.56" from="-172916437#2" to="-172916436#1" departLane="best" type="veh_passenger" departSpeed="max"/>
    <trip id="veh70" depart="1002.89" from="25757262#0" to="784545154" departLane="best" type="veh_passenger"/>
    <trip id="veh71" depart="1017.22" from="-10585181#5" to="-73530943#2" departLane="best" type="veh_passenger"/>
    <trip id="veh72" depart="1031.54" from="1209653410" to="725249379" departLane="best" type="veh_passenger"/>
    <trip id="veh73" depart="1045.87" from="10585181#6" to="-1272942442#0" departLane="best" type="veh_passenger"/>
    <trip id="veh74" depart="1060.20" from="-172916438#1" to="1136419338" departLane="best" type="veh_passenger"/>
    <trip id="veh75" depart="1074.53" from="1209653403#1" to="630680457#5" departLane="best" type="veh_passenger"/>
    <trip id="veh76" depart="1088.85" from="4577076#1" to="139327109#2" departLane="best" type="veh_passenger"/>
    <trip id="veh77" depart="1103.18" from="52631708" to="-10670468#1" departLane="best" type="veh_passenger"/>
    <trip id="veh78" depart="1117.51" from="10670468#0" to="25757262#2" departLane="best" type="veh_passenger"/>
    <trip id="veh79" depart="1131.83" from="10539447#0" to="139327109#2" departLane="best" type="veh_passenger"/>
    <trip id="veh80" depart="1146.16" from="630680457#1" to="1117069529" departLane="best" type="veh_passenger"/>
    <trip id="veh81" depart="1160.49" from="-250248463#1" to="784545154" departLane="best" type="veh_passenger" departSpeed="max"/>
    <trip id="veh82" depart="1174.81" from="-5045577#2" to="17133664#1" departLane="best" type="veh_passenger"/>
    <trip id="veh83" depart="1189.14" from="-4577078#2" to="784545155#0" departLane="best" type="veh_passenger"/>
    <trip id="veh84" depart="1203.47" from="-172916437#2" to="4909721" departLane="best" type="veh_passenger" departSpeed="max"/>
    <trip id="veh85" depart="1217.80" from="-73530943#4" to="784545154" departLane="best" type="veh_passenger"/>
    <trip id="veh86" depart="1232.12" from="-10670468#4" to="-5045577#3" departLane="best" type="veh_passenger" departSpeed="max"/>
    <trip id="veh87" depart="1246.45" from="-654399242" to="139327109#2" departLane="best" type="veh_passenger" departSpeed="max"/>
    <trip id="veh88" depart="1260.78" from="569766862#1" to="73530943#8" departLane="best" type="veh_passenger"/>
    <trip id="veh89" depart="1275.10" from="-10670468#4" to="139332152#1" departLane="best" type="veh_passenger" departSpeed="max"/>
    <trip id="veh90" depart="1289.43" from="1272942442#0" to="776576196" departLane="best" type="veh_passenger"/>
    <trip id="veh91" depart="1303.76" from="10585197#1" to="1272942442#0" departLane="best" type="veh_passenger"/>
    <trip id="veh92" depart="1318.08" from="5045577#0" to="776576196" departLane="best" type="veh_passenger"/>
    <trip id="veh93" depart="1332.41" from="44348023#0" to="10585181#5" departLane="best" type="veh_passenger"/>
    <trip id="veh94" depart="1346.74" from="5045577#0" to="310292423" departLane="best" type="veh_passenger"/>
    <trip id="veh95" depart="1361.07" from="-45897352#1" to="4909721" departLane="best" type="veh_passenger"/>
    <trip id="veh96" depart="1375.39" from="1038136215" to="10585186" departLane="best" type="veh_passenger"/>
    <trip id="veh97" depart="1389.72" from="-47528871#1" to="48485714#0" departLane="best" type="veh_passenger" departSpeed="max"/>
    <trip id="veh98" depart="1404.05" from="24801549#1" to="-4577073#1" departLane="best" type="veh_passenger"/>
    <trip id="veh99" depart="1418.37" from="-4577073#9" to="776576196" departLane="best" type="veh_passenger"/>
    <trip id="veh100" depart="1432.70" from="5094893#2" to="1470433046#2" departLane="best" type="veh_passenger"/>
    <trip id="veh101" depart="1447.03" from="-10670468#2" to="-46129141" departLane="best" type="veh_passenger"/>
    <trip id="veh102" depart="1461.35" from="-10670468#4" to="5094893#1" departLane="best" type="veh_passenger" departSpeed="max"/>
    <trip id="veh103" depart="1475.68" from="-1272942442#0" to="1117069529" departLane="best" type="veh_passenger"/>
    <trip id="veh104" depart="1490.01" from="4577076#0" to="630680457#2" departLane="best" type="veh_passenger" departSpeed="max"/>
    <trip id="veh105" depart="1504.34" from="-491516483#1" to="45897403#1" departLane="best" type="veh_passenger"/>
    <trip id="veh106" depart="1518.66" from="491516483#0" to="569766862#1" departLane="best" type="veh_passenger"/>
    <trip id="veh107" depart="1532.99" from="45897672#2" to="1470433046#0" departLane="best" type="veh_passenger"/>
    <trip id="veh108" depart="1547.32" from="4577078#0" to="784545154" departLane="best" type="veh_passenger"/>
    <trip id="veh109" depart="1561.64" from="5094893#1" to="-1272942442#4" departLane="best" type="veh_passenger"/>
    <trip id="veh110" depart="1575.97" from="-10585181#4" to="11294994" departLane="best" type="veh_passenger"/>
    <trip id="veh111" depart="1590.30" from="45897672#1" to="16986734#1" departLane="best" type="veh_passenger"/>
    <trip id="veh112" depart="1604.62" from="73530943#5" to="4577078#4" departLane="best" type="veh_passenger"/>
    <trip id="veh113" depart="1618.95" from="5045577#3" to="139332152#3" departLane="best" type="veh_passenger"/>
    <trip id="veh114" depart="1633.28" from="1209653414#0" to="16986734#1" departLane="best" type="veh_passenger"/>
    <trip id="veh115" depart="1647.61" from="-4754404#1" to="784545154" departLane="best" type="veh_passenger" departSpeed="max"/>
    <trip id="veh116" depart="1661.93" from="-47528871#0" to="25757262#1" departLane="best" type="veh_passenger"/>
    <trip id="veh117" depart="1676.26" from="985461730" to="988996003" departLane="best" type="veh_passenger"/>
    <trip id="veh118" depart="1690.59" from="24801549#0" to="784545154" departLane="best" type="veh_passenger"/>
    <trip id="veh119" depart="1704.91" from="73530943#8" to="25757262#0" departLane="best" type="veh_passenger"/>
    <trip id="veh120" depart="1719.24" from="569766862#0" to="405414870#3" departLane="best" type="veh_passenger"/>
    <trip id="veh121" depart="1733.57" from="73530943#7" to="25757262#0" departLane="best" type="veh_passenger"/>
    <trip id="veh122" depart="1747.89" from="-172916437#2" to="-172916442#2" departLane="best" type="veh_passenger" departSpeed="max"/>
    <trip id="veh123" depart="1762.22" from="569766862#0-AddedOffRampEdge" to="-73530943#8" departLane="best" type="veh_passenger"/>
    <trip id="veh124" depart="1776.55" from="5094887#0" to="988996003" departLane="best" type="veh_passenger"/>
    <trip id="veh125" depart="1790.88" from="139327105" to="-45897672#1" departLane="best" type="veh_passenger" departSpeed="max"/>
    <trip id="veh126" depart="1805.20" from="4577073#4" to="-4577078#0" departLane="best" type="veh_passenger"/>
    <trip id="veh127" depart="1819.53" from="1164319799#0" to="784545154" departLane="best" type="veh_passenger"/>
    <trip id="veh128" depart="1833.86" from="-630680457#0" to="4577074#0" departLane="best" type="veh_passenger"/>
    <trip id="veh129" depart="1848.18" from="10670468#0" to="-310292423" departLane="best" type="veh_passenger"/>
    <trip id="veh130" depart="1862.51" from="-10585197#2" to="1470433046#0" departLane="best" type="veh_passenger" departSpeed="max"/>
    <trip id="veh131" depart="1876.84" from="-11294993" to="46129059#0" departLane="best" type="veh_passenger" departSpeed="max"/>
    <trip id="veh132" depart="1891.16" from="4577073#0" to="988996007#0" departLane="best" type="veh_passenger"/>
    <trip id="veh133" depart="1905.49" from="-1272942442#4" to="10670468#4" departLane="best" type="veh_passenger"/>
    <trip id="veh134" depart="1919.82" from="1209653407" to="654399242" departLane="best" type="veh_passenger"/>
    <trip id="veh135" depart="1934.15" from="167571364#1" to="-4577078#4" departLane="best" type="veh_passenger"/>
    <trip id="veh136" depart="1948.47" from="25757262#2" to="-4577073#3" departLane="best" type="veh_passenger"/>
    <trip id="veh137" depart="1962.80" from="-73530943#4" to="1117069527#1" departLane="best" type="veh_passenger"/>
    <trip id="veh138" depart="1977.13" from="-5045577#1" to="630680457#7" departLane="best" type="veh_passenger"/>
    <trip id="veh139" depart="1991.45" from="25757262#2" to="405414870#3" departLane="best" type="veh_passenger"/>
    <trip id="veh140" depart="2005.78" from="-47528871#1" to="988996006" departLane="best" type="veh_passenger" departSpeed="max"/>
    <trip id="veh141" depart="2020.11" from="172916437#2" to="73530943#6" departLane="best" type="veh_passenger"/>
    <trip id="veh142" depart="2034.43" from="630680455#0" to="-1164319799#0" departLane="best" type="veh_passenger"/>
    <trip id="veh143" depart="2048.76" from="10585181#0" to="5094896#0" departLane="best" type="veh_passenger"/>
    <trip id="veh144" depart="2063.09" from="630680457#2" to="827546847" departLane="best" type="veh_passenger"/>
    <trip id="veh145" depart="2077.42" from="47528871#0" to="4577078#0" departLane="best" type="veh_passenger"/>
    <trip id="veh146" depart="2091.74" from="139327105" to="25757262#2" departLane="best" type="veh_passenger" departSpeed="max"/>
    <trip id="veh147" depart="2106.07" from="-172916437#2" to="10670468#3" departLane="best" type="veh_passenger" departSpeed="max"/>
    <trip id="veh148" depart="2120.40" from="1209622645" to="-73530943#8" departLane="best" type="veh_passenger"/>
    <trip id="veh149" depart="2134.72" from="1209622645" to="47528871#0" departLane="best" type="veh_passenger"/>
    <trip id="veh150" depart="2149.05" from="4577073#9" to="-73530943#2" departLane="best" type="veh_passenger"/>
    <trip id="veh151" depart="2163.38" from="4707777#0" to="776576196" departLane="best" type="veh_passenger" departSpeed="max"/>
    <trip id="veh152" depart="2177.70" from="-1470433046#2" to="10539044#0" departLane="best" type="veh_passenger"/>
    <trip id="veh153" depart="2192.03" from="4754396#5" to="139327109#2" departLane="best" type="veh_passenger"/>
    <trip id="veh154" depart="2206.36" from="4577077#0" to="250248463#1" departLane="best" type="veh_passenger"/>
    <trip id="veh155" depart="2220.69" from="-172916437#2" to="405414870#0" departLane="best" type="veh_passenger" departSpeed="max"/>
    <trip id="veh156" depart="2235.01" from="-491516483#0" to="1209653407" departLane="best" type="veh_passenger"/>
    <trip id="veh157" depart="2249.34" from="-10670468#4" to="4577078#3" departLane="best" type="veh_passenger" departSpeed="max"/>
    <trip id="veh158" depart="2263.67" from="44348588#0" to="-63906910#1" departLane="best" type="veh_passenger"/>
    <trip id="veh159" depart="2277.99" from="988996007#0" to="4577073#9" departLane="best" type="veh_passenger"/>
    <trip id="veh160" depart="2292.32" from="46129059#5" to="5094896#0" departLane="best" type="veh_passenger"/>
    <trip id="veh161" depart="2306.65" from="172916438#0" to="139327109#2" departLane="best" type="veh_passenger" departSpeed="max"/>
    <trip id="veh162" depart="2320.97" from="-11294993" to="784545154" departLane="best" type="veh_passenger" departSpeed="max"/>
    <trip id="veh163" depart="2335.30" from="4707777#0" to="1117069527#0" departLane="best" type="veh_passenger" departSpeed="max"/>
    <trip id="veh164" depart="2349.63" from="73530943#5" to="4577073#3" departLane="best" type="veh_passenger"/>
    <trip id="veh165" depart="2363.96" from="4577076#0" to="11294993" departLane="best" type="veh_passenger" departSpeed="max"/>
    <trip id="veh166" depart="2378.28" from="45897352#1" to="93686034#1" departLane="best" type="veh_passenger"/>
    <trip id="veh167" depart="2392.61" from="-172916437#2" to="10539044#0" departLane="best" type="veh_passenger" departSpeed="max"/>
    <trip id="veh168" depart="2406.94" from="44348588#0" to="-1470433046#1" departLane="best" type="veh_passenger"/>
    <trip id="veh169" depart="2421.26" from="73530943#10" to="1117069527#0" departLane="best" type="veh_passenger"/>
    <trip id="veh170" depart="2435.59" from="139332152#1" to="1117069529" departLane="best" type="veh_passenger"/>
    <trip id="veh171" depart="2449.92" from="-4577073#3" to="139327109#2" departLane="best" type="veh_passenger"/>
    <trip id="veh172" depart="2464.24" from="45897403#4" to="776576196" departLane="best" type="veh_passenger"/>
    <trip id="veh173" depart="2478.57" from="630680457#2" to="139327110#0" departLane="best" type="veh_passenger"/>
    <trip id="veh174" depart="2492.90" from="44348023#1" to="405414870#4" departLane="best" type="veh_passenger"/>
    <trip id="veh175" depart="2507.23" from="630680455#0" to="-73530943#5" departLane="best" type="veh_passenger"/>
    <trip id="veh176" depart="2521.55" from="-172916437#0" to="-73530943#7" departLane="best" type="veh_passenger"/>
    <trip id="veh177" depart="2535.88" from="10670468#2" to="569766862#0-AddedOffRampEdge" departLane="best" type="veh_passenger"/>
    <trip id="veh178" depart="2550.21" from="203086244#4" to="1117069529" departLane="best" type="veh_passenger"/>
    <trip id="veh179" depart="2564.53" from="-11294993" to="139332152#0" departLane="best" type="veh_passenger" departSpeed="max"/>
    <trip id="veh180" depart="2578.86" from="73530943#8" to="139327110#0" departLane="best" type="veh_passenger"/>
    <trip id="veh181" depart="2593.19" from="203086244#4" to="139327109#0" departLane="best" type="veh_passenger"/>
    <trip id="veh182" depart="2607.51" from="794626555#2" to="73530943#5" departLane="best" type="veh_passenger"/>
    <trip id="veh183" depart="2621.84" from="44348023#0" to="250248463#1" departLane="best" type="veh_passenger"/>
    <trip id="veh184" depart="2636.17" from="250248456" to="784545154" departLane="best" type="veh_passenger"/>
    <trip id="veh185" depart="2650.50" from="988996003" to="44348023#1" departLane="best" type="veh_passenger"/>
    <trip id="veh186" depart="2664.82" from="139327105" to="-45897352#1" departLane="best" type="veh_passenger" departSpeed="max"/>
    <trip id="veh187" depart="2679.15" from="10539447#1" to="784545154" departLane="best" type="veh_passenger"/>
    <trip id="veh188" depart="2693.48" from="24801549#1" to="630680457#3" departLane="best" type="veh_passenger"/>
    <trip id="veh189" depart="2707.80" from="139332152#2" to="-1470433046#2" departLane="best" type="veh_passenger"/>
    <trip id="veh190" depart="2722.13" from="10585181#5" to="139327109#0" departLane="best" type="veh_passenger"/>
    <trip id="veh191" depart="2736.46" from="46129117" to="655270062#1" departLane="best" type="veh_passenger"/>
    <trip id="veh192" depart="2750.78" from="10539044#4" to="-73530943#3" departLane="best" type="veh_passenger"/>
    <trip id="veh193" depart="2765.11" from="1209653402#0" to="-5094887#1" departLane="best" type="veh_passenger"/>
    <trip id="veh194" depart="2779.44" from="203086244#3" to="784545154" departLane="best" type="veh_passenger"/>
    <trip id="veh195" depart="2793.77" from="1209653401" to="-63906910#0" departLane="best" type="veh_passenger"/>
    <trip id="veh196" depart="2808.09" from="-5322852" to="25757262#2" departLane="best" type="veh_passenger"/>
    <trip id="veh197" depart="2822.42" from="44348588#1" to="139327106" departLane="best" type="veh_passenger"/>
    <trip id="veh198" depart="2836.75" from="-4577078#2" to="1136419338" departLane="best" type="veh_passenger"/>
    <trip id="veh199" depart="2851.07" from="-73530943#6" to="4909721" departLane="best" type="veh_passenger"/>
    <trip id="veh200" depart="2865.40" from="4754396#0" to="776576196" departLane="best" type="veh_passenger" departSpeed="max"/>
    <trip id="veh201" depart="2879.73" from="-172916437#2" to="405414870#3" departLane="best" type="veh_passenger" departSpeed="max"/>
    <trip id="veh202" depart="2894.05" from="-630680457#7" to="784545154" departLane="best" type="veh_passenger"/>
    <trip id="veh203" depart="2908.38" from="-73530943#7" to="17133664#1" departLane="best" type="veh_passenger"/>
    <trip id="veh204" depart="2922.71" from="-73530943#0" to="1117069527#0" departLane="best" type="veh_passenger"/>
    <trip id="veh205" depart="2937.04" from="-172916437#2" to="73530943#4" departLane="best" type="veh_passenger" departSpeed="max"/>
    <trip id="veh206" depart="2951.36" from="-172916442#1" to="1136419338" departLane="best" type="veh_passenger"/>
    <trip id="veh207" depart="2965.69" from="-10585197#2" to="288985250" departLane="best" type="veh_passenger" departSpeed="max"/>
    <trip id="veh208" depart="2980.02" from="-45897672#0" to="139327109#0" departLane="best" type="veh_passenger"/>
    <trip id="veh209" depart="2994.34" from="-47528871#1" to="139327106" departLane="best" type="veh_passenger" departSpeed="max"/>
    <trip id="veh210" depart="3008.67" from="-11294993" to="44348023#1" departLane="best" type="veh_passenger" departSpeed="max"/>
    <trip id="veh211" depart="3023.00" from="-10585181#0" to="1209653407" departLane="best" type="veh_passenger"/>
    <trip id="veh212" depart="3037.32" from="24801549#0" to="17133664#1" departLane="best" type="veh_passenger"/>
    <trip id="veh213" depart="3051.65" from="1209653406" to="25757262#1" departLane="best" type="veh_passenger"/>
    <trip id="veh214" depart="3065.98" from="5322852" to="988996007#1" departLane="best" type="veh_passenger"/>
    <trip id="veh215" depart="3080.31" from="-725249379" to="784545154" departLane="best" type="veh_passenger" departSpeed="max"/>
    <trip id="veh216" depart="3094.63" from="46129117" to="25757262#4" departLane="best" type="veh_passenger"/>
    <trip id="veh217" depart="3108.96" from="-10585197#2" to="4577075#1" departLane="best" type="veh_passenger" departSpeed="max"/>
    <trip id="veh218" depart="3123.29" from="-630680457#3" to="-47528871#0" departLane="best" type="veh_passenger"/>
    <trip id="veh219" depart="3137.61" from="203086244#0" to="1117069527#0" departLane="best" type="veh_passenger" departSpeed="max"/>
    <trip id="veh220" depart="3151.94" from="-10670468#4" to="1117069527#1" departLane="best" type="veh_passenger" departSpeed="max"/>
    <trip id="veh221" depart="3166.27" from="-1272942442#3" to="73530943#2" departLane="best" type="veh_passenger"/>
    <trip id="veh222" depart="3180.59" from="48485713" to="-73530943#3" departLane="best" type="veh_passenger"/>
    <trip id="veh223" depart="3194.92" from="250248456" to="1136419338" departLane="best" type="veh_passenger"/>
    <trip id="veh224" depart="3209.25" from="630680455#1" to="784545155#0" departLane="best" type="veh_passenger"/>
    <trip id="veh225" depart="3223.58" from="-172916436#1" to="16986734#1" departLane="best" type="veh_passenger"/>
    <trip id="veh226" depart="3237.90" from="172916442#2" to="988996007#1" departLane="best" type="veh_passenger"/>
    <trip id="veh227" depart="3252.23" from="46129059#3" to="985461729#0" departLane="best" type="veh_passenger"/>
    <trip id="veh228" depart="3266.56" from="24801549#0" to="139327109#2" departLane="best" type="veh_passenger"/>
    <trip id="veh229" depart="3280.88" from="24801549#4" to="-630680457#7" departLane="best" type="veh_passenger"/>
    <trip id="veh230" depart="3295.21" from="-250248463#0" to="-10585181#0" departLane="best" type="veh_passenger"/>
    <trip id="veh231" depart="3309.54" from="-45897672#2" to="1117069527#1" departLane="best" type="veh_passenger"/>
    <trip id="veh232" depart="3323.86" from="1136419338" to="139327109#2" departLane="best" type="veh_passenger"/>
    <trip id="veh233" depart="3338.19" from="-73530943#10" to="139327110#0" departLane="best" type="veh_passenger"/>
    <trip id="veh234" depart="3352.52" from="1209653412#1" to="46129059#0" departLane="best" type="veh_passenger"/>
    <trip id="veh235" depart="3366.85" from="45897672#2" to="46129059#4" departLane="best" type="veh_passenger"/>
    <trip id="veh236" depart="3381.17" from="-10670468#4" to="1117069526" departLane="best" type="veh_passenger" departSpeed="max"/>
    <trip id="veh237" depart="3395.50" from="167571364#1" to="569766862#1" departLane="best" type="veh_passenger"/>
    <trip id="veh238" depart="3409.83" from="985461732" to="10539044#1" departLane="best" type="veh_passenger"/>
    <trip id="veh239" depart="3424.15" from="-1272942442#4" to="776576196" departLane="best" type="veh_passenger"/>
    <trip id="veh240" depart="3438.48" from="73530943#9" to="-46129059#2" departLane="best" type="veh_passenger"/>
    <trip id="veh241" depart="3452.81" from="1209622645" to="10585197#1" departLane="best" type="veh_passenger"/>
    <trip id="veh242" depart="3467.13" from="10539044#2" to="1272942442#4" departLane="best" type="veh_passenger"/>