<?xml version="1.0" encoding="UTF-8"?>

<!-- generated on 2026-03-11 17:21:01.890816 by Eclipse SUMO osmWebWizard.py v1_26_0+0000-fa7df22d7f1
<configuration>
    <net-file value="C:\Users\samle\AppData\Local\Programs\Microsoft VS Code\2026-03-11-17-20-46\osm.net.xml.gz"/>
    <ptlines-file value="C:\Users\samle\AppData\Local\Programs\Microsoft VS Code\2026-03-11-17-20-46\osm_ptlines.xml"/>
    <ptstops-file value="C:\Users\samle\AppData\Local\Programs\Microsoft VS Code\2026-03-11-17-20-46\osm_stops.add.xml"/>
    <output-file value="C:\Users\samle\AppData\Local\Programs\Microsoft VS Code\2026-03-11-17-20-46\osm_pt.rou.xml"/>
    <stopinfos-file value="C:\Users\samle\AppData\Local\Programs\Microsoft VS Code\2026-03-11-17-20-46\stopinfos.xml"/>
    <routes-file value="C:\Users\samle\AppData\Local\Programs\Microsoft VS Code\2026-03-11-17-20-46\vehroutes.xml"/>
    <trips-file value="C:\Users\samle\AppData\Local\Programs\Microsoft VS Code\2026-03-11-17-20-46\trips.trips.xml"/>
    <min-stops value="0"/>
    <extend-to-fringe value="True"/>
    <random-begin value="True"/>
    <seed value="42"/>
    <ignore-errors value="True"/>
    <vtype-prefix value="pt_"/>
    <verbose value="True"/>
</configuration>
-->

<routes xmlns:xsi="http://www.w3.org/2001/XMLSchema-instance" xsi:noNamespaceSchemaLocation="http://sumo.dlr.de/xsd/routes_file.xsd">
    <vType id="pt_bus" vClass="bus"/>
    <vType id="pt_tram" vClass="tram"/>
    <vType id="pt_train" vClass="rail"/>
    <vType id="pt_subway" vClass="subway"/>
    <vType id="pt_light_rail" vClass="rail_urban"/>
    <vType id="pt_monorail" vClass="rail_urban"/>
    <vType id="pt_trolleybus" vClass="bus"/>
    <vType id="pt_minibus" vClass="bus"/>
    <vType id="pt_share_taxi" vClass="taxi"/>
    <vType id="pt_aerialway" vClass="cable_car" length="2.5" width="2" personCapacity="4"/>
    <vType id="pt_ferry" vClass="ship"/>
    <route id="pt_bus_631:0" color="255,130,0" edges="203086244#0 203086244#2 203086244#3 203086244#4 203086244#5 1136419338 1117069530 10539028#1 809933533 -815582706 -807418425#3 -807418425#1 1460018446 493547207#1 493547204 44348551#0 44348551#3 1136419338 165828381 139327106 794265310 776576197 139327098#0 288985250 784545154" >
        <stop busStop="-5737782115" duration="20" until="153.0"/> <!-- Monash University (Bay E) -->
    </route>
    <route id="pt_bus_631:1" color="255,130,0" edges="139327105 167571364#1 44348023#0 44348023#1 1038136215 139327110#0 10539028#1 809933533 -815582706 -807418425#3 -807418425#1 1460018446 493547207#1 493547204 44348034#0 1209622645 569766862#0 569766862#0-AddedOffRampEdge 569766862#1 25757262#0 25757262#1 25757262#2 25757262#4" >
        <stop busStop="-5737782115" duration="20" until="107.0"/> <!-- Monash University (Bay E) -->
    </route>
    <route id="pt_bus_703:0" color="255,130,0" edges="203086244#0 203086244#2 203086244#3 203086244#4 203086244#5 1136419338 1117069530 10539028#1 493547206#0 493547206#1 1460018446 493547207#1 493547204 44348551#0 44348551#3 1136419338 165828381 139327106 794265310 776576197 139327098#0 288985250 784545154" >
        <stop busStop="5737782109" duration="20" until="126.0"/> <!-- Monash University (Bay K) -->
    </route>
    <route id="pt_bus_703:1" color="255,130,0" edges="139327105 167571364#1 44348023#0 44348023#1 1038136215 139327110#0 10539028#1 493547206#0 493547206#1 1460018446 493547207#1 493547204 44348034#0 1209622645 569766862#0 569766862#0-AddedOffRampEdge 569766862#1 25757262#0 25757262#1 25757262#2 25757262#4" >
        <stop busStop="925369830" duration="20" until="129.0"/> <!-- Monash University (Bay L) -->
        <stop busStop="8347277150" duration="20" until="204.0"/> <!-- Monash University -->
    </route>
    <route id="pt_bus_900:0" color="255,130,0" edges="139327105 167571364#1 44348023#0 44348023#1 1038136215 139327110#0 10539028#1 493547206#0 493547206#1 1460018446 493547207#1 493547204 44348034#0 1209622645 569766862#0 569766862#0-AddedOffRampEdge 569766862#1 25757262#0 25757262#1 25757262#2 25757262#4" >
        <stop busStop="5737782118" duration="20" until="150.0"/> <!-- Monash University (Bay M) -->
    </route>
    <flow id="pt_bus_631:0" type="pt_bus" route="pt_bus_631:0" begin="15.0" end="3615.0" period="600" line="631:0" >
        <param key="name" value="Bus 631: Waverley Gardens SC =&gt; Southland SC"/>
        <param key="completeness" value="0.05"/>
    </flow>
    <flow id="pt_bus_631:1" type="pt_bus" route="pt_bus_631:1" begin="133.0" end="3733.0" period="600" line="631:1" >
        <param key="name" value="Bus 631: Southland SC =&gt; Waverley Gardens SC"/>
        <param key="completeness" value="0.04"/>
    </flow>
    <flow id="pt_bus_900:0" type="pt_bus" route="pt_bus_900:0" begin="165.0" end="3765.0" period="600" line="900:0" >
        <param key="name" value="Bus 900: Caulfield railway station =&gt; Stud Park Shopping Centre"/>
        <param key="completeness" value="0.07"/>
    </flow>
    <flow id="pt_bus_703:0" type="pt_bus" route="pt_bus_703:0" begin="383.0" end="3983.0" period="600" line="703:0" >
        <param key="name" value="Bus 703: Blackburn railway station =&gt; Middle Brighton railway station"/>
        <param key="completeness" value="0.01"/>
    </flow>
    <flow id="pt_bus_703:1" type="pt_bus" route="pt_bus_703:1" begin="441.0" end="4041.0" period="600" line="703:1" >
        <param key="name" value="Bus 703: Middle Brighton railway station =&gt; Blackburn railway station"/>
        <param key="completeness" value="0.10"/>
    </flow>
</routes>
