<?xml version="1.0" encoding="UTF-8"?>

<!-- generated on 2026-03-11T17:20:59.547121+10:00 by Eclipse SUMO netconvert 1.26.0
<netconvertConfiguration xmlns:xsi="http://www.w3.org/2001/XMLSchema-instance" xsi:noNamespaceSchemaLocation="http://sumo.dlr.de/xsd/netconvertConfiguration.xsd">

    <input>
        <type-files value="${SUMO_HOME}\data\typemap\osmNetconvert.typ.xml,${SUMO_HOME}\data\typemap\osmNetconvertUrbanDe.typ.xml,${SUMO_HOME}\data\typemap\osmNetconvertPedestrians.typ.xml,${SUMO_HOME}\data\typemap\osmNetconvertBicycle.typ.xml,${SUMO_HOME}\data\typemap\osmNetconvertAerialway.typ.xml"/>
        <osm-files value="osm_bbox.osm.xml.gz"/>
    </input>

    <output>
        <output-file value="osm.net.xml.gz"/>
        <output.street-names value="true"/>
        <output.original-names value="true"/>
        <ptstop-output value="osm_stops.add.xml"/>
        <ptline-output value="osm_ptlines.xml"/>
        <ptline-clean-up value="true"/>
    </output>

    <projection>
        <proj.utm value="true"/>
    </projection>

    <processing>
        <geometry.remove value="true"/>
        <lefthand value="true"/>
    </processing>

    <tls_building>
        <tls.discard-simple value="true"/>
        <tls.join value="true"/>
        <tls.guess-signals value="true"/>
        <tls.default-type value="actuated"/>
    </tls_building>

    <ramp_guessing>
        <ramps.guess value="true"/>
    </ramp_guessing>

    <junctions>
        <junctions.join value="true"/>
    </junctions>

    <pedestrian>
        <crossings.guess value="true"/>
    </pedestrian>

    <railway>
        <railway.topology.repair value="true"/>
    </railway>

    <formats>
        <osm.bike-access value="true"/>
        <osm.sidewalks value="true"/>
    </formats>

</netconvertConfiguration>
-->

<additional xmlns:xsi="http://www.w3.org/2001/XMLSchema-instance" xsi:noNamespaceSchemaLocation="http://sumo.dlr.de/xsd/additional_file.xsd">
    <busStop id="-5737782115" name="Monash University (Bay E)" lane="-807418425#3_0" startPos="47.11" endPos="62.11" friendlyPos="true" lines="631">
        <access lane="1007909777#1_0" pos="28.43" length="10.34" friendlyPos="1"/>
        <access lane="1460018422#0_0" pos="0.00" length="14.27" friendlyPos="1"/>
        <access lane="1460018422#1_0" pos="0.00" length="27.96" friendlyPos="1"/>
        <access lane="1460018424_0" pos="0.00" length="7.60" friendlyPos="1"/>
        <access lane="809933534#1_0" pos="1.90" length="0.00" friendlyPos="1"/>
    </busStop>
    <busStop id="5737782109" name="Monash University (Bay K)" lane="493547207#1_0" startPos="23.47" endPos="38.47" friendlyPos="true" lines="703">
        <access lane="14540342#3_0" pos="62.39" length="42.15" friendlyPos="1"/>
        <access lane="1460018428_0" pos="0.00" length="42.14" friendlyPos="1"/>
        <access lane="1460018429#0_0" pos="0.00" length="43.55" friendlyPos="1"/>
        <access lane="809933534#1_0" pos="32.48" length="0.00" friendlyPos="1"/>
        <access lane="809933536#1_0" pos="38.51" length="35.45" friendlyPos="1"/>
    </busStop>
    <busStop id="5737782118" name="Monash University (Bay M)" lane="1460018446_0" startPos="9.54" endPos="24.54" friendlyPos="true" lines="900">
        <access lane="1007909777#1_0" pos="22.61" length="0.00" friendlyPos="1"/>
        <access lane="1460018422#0_0" pos="0.00" length="17.80" friendlyPos="1"/>
        <access lane="1460018422#1_0" pos="0.00" length="29.98" friendlyPos="1"/>
        <access lane="1460018424_0" pos="0.00" length="13.04" friendlyPos="1"/>
        <access lane="809933534#1_0" pos="0.00" length="16.22" friendlyPos="1"/>
    </busStop>
    <busStop id="8347277150" name="Monash University" lane="25757262#2_0" startPos="45.53" endPos="60.53" friendlyPos="true" lines="703">
        <access lane="-333727835#5_0" pos="53.77" length="18.26" friendlyPos="1"/>
        <access lane="-46129103#2_0" pos="0.00" length="63.72" friendlyPos="1"/>
        <access lane="-46129103#3_0" pos="6.05" length="63.34" friendlyPos="1"/>
        <access lane="333727835#5_0" pos="34.40" length="15.26" friendlyPos="1"/>
        <access lane="46129103#3_0" pos="0.00" length="68.13" friendlyPos="1"/>
    </busStop>
    <busStop id="925369830" name="Monash University (Bay L)" lane="493547207#1_0" startPos="2.74" endPos="17.74" friendlyPos="true" lines="703">
        <access lane="1007909777#1_0" pos="28.43" length="25.12" friendlyPos="1"/>
        <access lane="1460018422#0_0" pos="0.00" length="24.87" friendlyPos="1"/>
        <access lane="1460018422#1_0" pos="0.00" length="34.59" friendlyPos="1"/>
        <access lane="1460018424_0" pos="0.00" length="21.72" friendlyPos="1"/>
        <access lane="809933534#1_0" pos="11.76" length="0.01" friendlyPos="1"/>
    </busStop>
</additional>
