<?xml version="1.0" encoding="UTF-8"?>

<!-- generated on 2026-03-11 17:21:01.097198 by Eclipse SUMO $Id: ptlines2flows.py v1_3_1+0313-ccb31df3eb jakob.erdmann@dlr.de 2019-09-02 13:26:32 +0200 $ v1_26_0+0000-fa7df22d7f1
<configuration>
    <net-file value="C:\Users\samle\AppData\Local\Programs\Microsoft VS Code\2026-03-11-17-20-46\osm.net.xml.gz"/>
    <ptlines-file value="C:\Users\samle\AppData\Local\Programs\Microsoft VS Code\2026-03-11-17-20-46\osm_ptlines.xml"/>
    <ptstops-file value="C:\Users\samle\AppData\Local\Programs\Microsoft VS Code\2026-03-11-17-20-46\osm_stops.add.xml"/>
    <output-file value="C:\Users\samle\AppData\Local\Programs\Microsoft VS Code\2026-03-11-17-20-46\osm_pt.rou.xml"/>
    <stopinfos-file value="C:\Users\samle\AppData\Local\Programs\Microsoft VS Code\2026-03-11-17-20-46\stopinfos.xml"/>
    <routes-file value="C:\Users\samle\AppData\Local\Programs\Microsoft VS Code\2026-03-11-17-20-46\vehroutes.xml"/>
    <trips-file value="C:\Users\samle\AppData\Local\Programs\Microsoft VS Code\2026-03-11-17-20-46\trips.trips.xml"/>
    <min-stops value="0"/>
    <extend-to-fringe value="True"/>
    <random-begin value="True"/>
    <seed value="42"/>
    <ignore-errors value="True"/>
    <vtype-prefix value="pt_"/>
    <verbose value="True"/>
</configuration>
-->

<routes xmlns:xsi="http://www.w3.org/2001/XMLSchema-instance" xsi:noNamespaceSchemaLocation="http://sumo.dlr.de/xsd/routes_file.xsd">
    <vType id="pt_bus" vClass="bus" speedFactor="0.95"/>
    <vType id="pt_tram" vClass="tram" speedFactor="1.0"/>
    <vType id="pt_train" vClass="rail"/>
    <vType id="pt_subway" vClass="subway"/>
    <vType id="pt_light_rail" vClass="rail_urban"/>
    <vType id="pt_monorail" vClass="rail_urban"/>
    <vType id="pt_trolleybus" vClass="bus" speedFactor="0.95"/>
    <vType id="pt_minibus" vClass="bus" speedFactor="0.95"/>
    <vType id="pt_share_taxi" vClass="taxi" speedFactor="0.95"/>
    <vType id="pt_aerialway" vClass="cable_car" length="2.5" width="2" personCapacity="4"/>
    <vType id="pt_ferry" vClass="ship"/>
    <trip id="0_bus_631:0" type="pt_bus" depart="15.0" departLane="best" from="203086244#0" to="784545154">
        <stop busStop="-5737782115" duration="30"/>  <!-- Monash University (Bay E) -->
    </trip>
    <trip id="1_bus_631:1" type="pt_bus" depart="133.0" departLane="best" from="139327105" to="25757262#4">
        <stop busStop="-5737782115" duration="30"/>  <!-- Monash University (Bay E) -->
    </trip>
    <trip id="2_bus_900:0" type="pt_bus" depart="165.0" departLane="best" from="139327105" to="25757262#4">
        <stop busStop="5737782118" duration="30"/>  <!-- Monash University (Bay M) -->
    </trip>
    <trip id="3_bus_703:0" type="pt_bus" depart="383.0" departLane="best" from="203086244#0" to="784545154">
        <stop busStop="5737782109" duration="30"/>  <!-- Monash University (Bay K) -->
    </trip>
    <trip id="4_bus_703:1" type="pt_bus" depart="441.0" departLane="best" from="139327105" to="25757262#4">
        <stop busStop="925369830" duration="30"/>  <!-- Monash University (Bay L) -->
        <stop busStop="8347277150" duration="30"/>  <!-- Monash University -->
    </trip>
</routes>
